data_333-7-11-18-15-30-13
_audit_creation_date              2025-03-07
_audit_creation_method            'Materials Studio'
_symmetry_space_group_name_H-M    'P1'
_symmetry_Int_Tables_number       1
_symmetry_cell_setting            triclinic
loop_
_symmetry_equiv_pos_as_xyz
  x,y,z
_cell_length_a                    16.4546
_cell_length_b                    21.0916
_cell_length_c                    19.4148
_cell_angle_alpha                 104.0452
_cell_angle_beta                  78.6924
_cell_angle_gamma                 123.7181
loop_
_atom_site_label
_atom_site_type_symbol
_atom_site_fract_x
_atom_site_fract_y
_atom_site_fract_z
_atom_site_U_iso_or_equiv
_atom_site_adp_type
_atom_site_occupancy
Si1    Si   -0.16257   0.10837   0.21047   0.00000  Uiso   1.00
Si2    Si    0.08777   0.10310   0.02576   0.00000  Uiso   1.00
Si3    Si    0.34423   0.10331   0.37564   0.00000  Uiso   1.00
Si4    Si   -0.04114   0.18773   0.51860   0.00000  Uiso   1.00
Si5    Si    0.13985  -0.06522   0.84196   0.00000  Uiso   1.00
Si6    Si    0.04321   0.22773   0.01667   0.00000  Uiso   1.00
Si7    Si    0.11207   0.73368   0.42170   0.00000  Uiso   1.00
Si8    Si    0.10828   0.32582   0.44783   0.00000  Uiso   1.00
Si9    Si   -0.00451   0.51202   0.64364   0.00000  Uiso   1.00
Si10   Si    0.12508   0.44493   0.37152   0.00000  Uiso   1.00
Si11   Si   -0.06490   0.39487   0.86713   0.00000  Uiso   1.00
Si12   Si    0.26456   0.79120   0.87877   0.00000  Uiso   1.00
Si13   Si   -0.04686   0.78006   0.87367   0.00000  Uiso   1.00
Si14   Si    0.22554   0.84342   0.75741   0.00000  Uiso   1.00
Si15   Si    0.55402   0.21125   0.09782   0.00000  Uiso   1.00
Si16   Si    0.45663   0.20469  -0.02916   0.00000  Uiso   1.00
Si17   Si    0.49080  -0.06755   0.52104   0.00000  Uiso   1.00
Si18   Si    0.41332   0.18611   0.52485   0.00000  Uiso   1.00
Si19   Si    0.24941   0.10405   0.91767   0.00000  Uiso   1.00
Si20   Si    0.46725   0.13198   0.62858   0.00000  Uiso   1.00
Si21   Si    0.47010   0.35380   0.04446   0.00000  Uiso   1.00
Si22   Si    0.46921   0.47060  -0.02894   0.00000  Uiso   1.00
Si23   Si    0.27621   0.42380   0.54650   0.00000  Uiso   1.00
Si24   Si    0.61299   0.50822   0.27317   0.00000  Uiso   1.00
Si25   Si    0.36173   0.42723   0.83999   0.00000  Uiso   1.00
Si26   Si    0.41662   0.56077   0.09718   0.00000  Uiso   1.00
Si27   Si    0.46201   1.04024   0.09594   0.00000  Uiso   1.00
Si28   Si    0.72471   0.77394   0.48704   0.00000  Uiso   1.00
Si29   Si    0.39794   0.86383   0.65326   0.00000  Uiso   1.00
Si30   Si    0.47696   0.59183   0.79674   0.00000  Uiso   1.00
Si31   Si    0.58576   0.89267   0.68973   0.00000  Uiso   1.00
Si32   Si    0.81928   0.01907   0.44338   0.00000  Uiso   1.00
Si33   Si    0.63839   0.09988   0.57689   0.00000  Uiso   1.00
Si34   Si    0.71443   0.02780   0.33760   0.00000  Uiso   1.00
Si35   Si    0.91219   0.13349   0.74124   0.00000  Uiso   1.00
Si36   Si    0.58802   0.16647   0.85456   0.00000  Uiso   1.00
Si37   Si    0.82208   0.17623   0.65491   0.00000  Uiso   1.00
Si38   Si    1.10960   0.72391   0.26112   0.00000  Uiso   1.00
Si39   Si    0.65872   0.48139   0.11152   0.00000  Uiso   1.00
Si40   Si    0.70587   0.16226   0.43568   0.00000  Uiso   1.00
Si41   Si    0.77012   0.28138   0.77120   0.00000  Uiso   1.00
Si42   Si    0.64159   0.47671   0.87076   0.00000  Uiso   1.00
Si43   Si    0.78493   0.38872   0.68172   0.00000  Uiso   1.00
Si44   Si    0.75670   0.64798   0.08990   0.00000  Uiso   1.00
Si45   Si    0.46088   0.71037   0.20142   0.00000  Uiso   1.00
Si46   Si    0.77567   0.74137  -0.01294   0.00000  Uiso   1.00
Si47   Si    0.74727   0.92682   0.56899   0.00000  Uiso   1.00
Si48   Si    0.95951   0.98618   0.33242   0.00000  Uiso   1.00
Si49   Si    0.67096   0.46843   0.71220   0.00000  Uiso   1.00
Si50   Si    0.62283   0.71355   0.89824   0.00000  Uiso   1.00
Si51   Si    0.90362   0.98463   0.67153   0.00000  Uiso   1.00
C52    C    -0.25116   0.13271   0.19958   0.00000  Uiso   1.00
C53    C     0.96104   0.19579   0.21960   0.00000  Uiso   1.00
C54    C     0.11003   0.08785   0.11044   0.00000  Uiso   1.00
C55    C    -0.01055   0.00631   0.98248   0.00000  Uiso   1.00
C56    C     0.26411  -0.00776   0.35233   0.00000  Uiso   1.00
C57    C     0.44934   1.13234   0.30940   0.00000  Uiso   1.00
C58    C     0.27991   1.15503   0.37411   0.00000  Uiso   1.00
C59    C     0.04886   0.16872   0.53599   0.00000  Uiso   1.00
C60    C     0.08682  -0.04623   0.77879   0.00000  Uiso   1.00
C61    C    -0.17276   0.03446   0.12879   0.00000  Uiso   1.00
C62    C    -0.09570   0.18886   0.02433   0.00000  Uiso   1.00
O63    O     0.05943   0.16756   0.03971   0.00000  Uiso   1.00
C64    C     0.09134   0.23449  -0.07738   0.00000  Uiso   1.00
C65    C     0.11049   0.32763   0.06537   0.00000  Uiso   1.00
C66    C     0.12561   0.82634   0.46380   0.00000  Uiso   1.00
C67    C     0.97668   0.65536   0.43582   0.00000  Uiso   1.00
O68    O     0.01056   0.25868   0.47876   0.00000  Uiso   1.00
C69    C     0.16420   0.27841   0.37948   0.00000  Uiso   1.00
C70    C     0.08933   0.58336   0.71583   0.00000  Uiso   1.00
C71    C    -0.00187   0.56774   0.58004   0.00000  Uiso   1.00
C72    C     0.19662   0.71900   0.45936   0.00000  Uiso   1.00
C73    C     0.15150   0.41227   0.27460   0.00000  Uiso   1.00
O74    O     0.08382   0.37370   0.41199   0.00000  Uiso   1.00
C75    C     0.03384   0.47154   0.38664   0.00000  Uiso   1.00
C76    C     0.24414   0.52632   0.40428   0.00000  Uiso   1.00
C77    C    -0.06069   0.48803   0.88622   0.00000  Uiso   1.00
C78    C     1.03466   0.40136   0.79475   0.00000  Uiso   1.00
C79    C    -0.03931   0.38197   0.94875   0.00000  Uiso   1.00
C80    C     0.24120   0.85333   0.95850   0.00000  Uiso   1.00
C81    C     0.19751   0.69089   0.89735   0.00000  Uiso   1.00
C82    C     0.39282   0.81852   0.85892   0.00000  Uiso   1.00
C83    C    -0.02175   0.70595   0.86092   0.00000  Uiso   1.00
O84    O     0.05297   0.86660   0.87922   0.00000  Uiso   1.00
C85    C     0.12682   0.78001   0.69558   0.00000  Uiso   1.00
O86    O     0.22676   0.79557   0.80864   0.00000  Uiso   1.00
O87    O     0.21767   0.91224   0.80206   0.00000  Uiso   1.00
C88    C     0.51914   0.25532   0.17967   0.00000  Uiso   1.00
C89    C     0.68552   1.27182   0.07353   0.00000  Uiso   1.00
O90    O     0.48246   0.19222   0.04231   0.00000  Uiso   1.00
C91    C     0.43351  -0.05498   0.45101   0.00000  Uiso   1.00
C92    C     0.52155   0.85815   0.48279   0.00000  Uiso   1.00
O93    O     0.37755   0.12509   0.45490   0.00000  Uiso   1.00
C94    C     0.50180   0.28704   0.50910   0.00000  Uiso   1.00
C95    C     0.29805   0.17333   0.57888   0.00000  Uiso   1.00
O96    O     0.18856   0.01034   0.90072   0.00000  Uiso   1.00
O97    O     0.35416   0.13589   0.94908   0.00000  Uiso   1.00
C98    C     0.27725   0.14870   0.83883   0.00000  Uiso   1.00
O99    O     0.18969   0.13283   0.97909   0.00000  Uiso   1.00
O100   O     0.47072   0.16518   0.56242   0.00000  Uiso   1.00
C101   C     0.34321   0.03944   0.64513   0.00000  Uiso   1.00
C102   C     0.49243   0.21362   0.70765   0.00000  Uiso   1.00
C103   C     0.38372   0.31538   0.12421   0.00000  Uiso   1.00
O104   O     0.45739   0.28222  -0.01329   0.00000  Uiso   1.00
O105   O     0.44532   0.40378   0.01316   0.00000  Uiso   1.00
O106   O     0.17760   0.38490   0.51142   0.00000  Uiso   1.00
C107   C     0.35077   0.53079   0.54852   0.00000  Uiso   1.00
C108   C     0.35547   0.38805   0.48603   0.00000  Uiso   1.00
C109   C     0.56307   0.42281   0.31662   0.00000  Uiso   1.00
C110   C     0.74308   0.58420   0.30084   0.00000  Uiso   1.00
C111   C     0.36300   0.34449   0.78512   0.00000  Uiso   1.00
O112   O     0.39139   0.44391   0.91647   0.00000  Uiso   1.00
C113   C     0.23261   0.40861   0.85258   0.00000  Uiso   1.00
C114   C     0.39010   0.49535   0.16199   0.00000  Uiso   1.00
O115   O     0.47735   0.54389   0.02948   0.00000  Uiso   1.00
C116   C     0.29890   0.53721   0.07002   0.00000  Uiso   1.00
C117   C     0.33580   1.02121   0.10884   0.00000  Uiso   1.00
C118   C     0.48661   0.99940   0.00331   0.00000  Uiso   1.00
O119   O     0.53490   1.13285   0.11295   0.00000  Uiso   1.00
C120   C     0.45931   0.98235   0.15817   0.00000  Uiso   1.00
C121   C     0.24672   0.40172   0.63970   0.00000  Uiso   1.00
C122   C     0.64541   0.67404   0.51520   0.00000  Uiso   1.00
C123   C     0.54378   0.55471   0.31845   0.00000  Uiso   1.00
C124   C     0.85304   0.79592   0.48176   0.00000  Uiso   1.00
C125   C     0.69658   0.77505   0.40006   0.00000  Uiso   1.00
C126   C     0.35523   0.76407   0.62611   0.00000  Uiso   1.00
O127   O     0.41581   0.90236   0.58692   0.00000  Uiso   1.00
O128   O     0.32708   0.88029   0.71131   0.00000  Uiso   1.00
O129   O     0.43334   0.50033   0.80059   0.00000  Uiso   1.00
C130   C     0.52799   0.61271   0.70509   0.00000  Uiso   1.00
O131   O     0.49950   0.90423   0.68708   0.00000  Uiso   1.00
C132   C     0.38530   0.61758   0.82451   0.00000  Uiso   1.00
C133   C     0.54846   0.78856   0.67649   0.00000  Uiso   1.00
C134   C     0.63935   0.93614   0.77591   0.00000  Uiso   1.00
O135   O     0.87812   0.11079   0.47424   0.00000  Uiso   1.00
O136   O     0.58437   0.01289   0.54539   0.00000  Uiso   1.00
O137   O     0.55920   0.11929   0.62172   0.00000  Uiso   1.00
O138   O     0.80883   0.07516   0.28199   0.00000  Uiso   1.00
C139   C     0.61219  -0.06081   0.28597   0.00000  Uiso   1.00
O140   O     0.75052  -0.00453   0.38260   0.00000  Uiso   1.00
C141   C     1.03986   0.21240   0.71510   0.00000  Uiso   1.00
C142   C     0.48271   0.07039   0.81045   0.00000  Uiso   1.00
C143   C     0.65656   0.14861   0.90533   0.00000  Uiso   1.00
O144   O     0.53835   0.21166   0.90967   0.00000  Uiso   1.00
O145   O     0.90425   0.20583   0.58979   0.00000  Uiso   1.00
O146   O     0.71536   0.11922   0.62572   0.00000  Uiso   1.00
O147   O     0.84320   0.12950   0.69414   0.00000  Uiso   1.00
C148   C     1.05155   0.62443   0.21677   0.00000  Uiso   1.00
C149   C     1.21045   0.78418   0.19883   0.00000  Uiso   1.00
C150   C     1.01828   0.75106   0.28050   0.00000  Uiso   1.00
O151   O     1.13919   0.73348   0.33881   0.00000  Uiso   1.00
O152   O     0.58088   0.40564   0.06389   0.00000  Uiso   1.00
C153   C     0.76282   0.47736   0.11910   0.00000  Uiso   1.00
O154   O     0.61120   0.48621   0.18923   0.00000  Uiso   1.00
O155   O     0.69001   0.15344   0.51625   0.00000  Uiso   1.00
O156   O     0.67496   0.07913   0.38757   0.00000  Uiso   1.00
C157   C     0.62331   0.18888   0.41616   0.00000  Uiso   1.00
C158   C     0.83475   0.23254   0.40452   0.00000  Uiso   1.00
C159   C     1.03624   0.44990   0.58618   0.00000  Uiso   1.00
O160   O     0.66060   0.21536   0.79414   0.00000  Uiso   1.00
O161   O     0.82448   0.24777   0.71339   0.00000  Uiso   1.00
O162   O     0.82987   0.32009   0.83736   0.00000  Uiso   1.00
C163   C     0.60439   0.37576   0.86358   0.00000  Uiso   1.00
C164   C     0.76136   0.53524   0.89951   0.00000  Uiso   1.00
O165   O     0.57268   0.49961   0.92717   0.00000  Uiso   1.00
O166   O     0.89289   0.46625   0.68352   0.00000  Uiso   1.00
C167   C     0.75575   0.32393   0.59390   0.00000  Uiso   1.00
O168   O     0.76403   0.34149   0.74171   0.00000  Uiso   1.00
O169   O     0.68958   0.55554   0.08184   0.00000  Uiso   1.00
C170   C     0.88549   0.67477   0.09449   0.00000  Uiso   1.00
C171   C     0.70850   0.69040   0.16992   0.00000  Uiso   1.00
O172   O     0.47455   0.65045   0.13894   0.00000  Uiso   1.00
C173   C     0.47887   0.79461   0.16687   0.00000  Uiso   1.00
C174   C     0.33174   0.65668   0.23799   0.00000  Uiso   1.00
O175   O     0.88327   0.77442   0.94406   0.00000  Uiso   1.00
O176   O     0.74342   0.67180   0.02456   0.00000  Uiso   1.00
C177   C     0.77506   0.82574   0.05017   0.00000  Uiso   1.00
O178   O     0.71621   0.83745   0.54435   0.00000  Uiso   1.00
O179   O     0.75280   0.96526   0.50284   0.00000  Uiso   1.00
O180   O     0.67023   0.92932   0.63030   0.00000  Uiso   1.00
C181   C     0.88735   0.93897   0.26025   0.00000  Uiso   1.00
C182   C     0.54486   0.74994   0.27521   0.00000  Uiso   1.00
C183   C     1.01223   0.93163   0.34064   0.00000  Uiso   1.00
C184   C     1.05553   1.08001   0.30797   0.00000  Uiso   1.00
O185   O     0.89851   0.99833   0.40641   0.00000  Uiso   1.00
O186   O     0.64243   0.49196   0.79491   0.00000  Uiso   1.00
O187   O     0.70076   0.40728   0.70157   0.00000  Uiso   1.00
C188   C     0.76444   0.55269   0.67007   0.00000  Uiso   1.00
C189   C     0.89124   0.76520   0.79148   0.00000  Uiso   1.00
O190   O     0.56380   0.63835   0.84606   0.00000  Uiso   1.00
O191   O     0.69979   0.70854   0.93149   0.00000  Uiso   1.00
C192   C     0.67792   0.80425   0.85663   0.00000  Uiso   1.00
C193   C     0.88665   1.16009   0.83548   0.00000  Uiso   1.00
C194   C     0.53101   0.71370   0.96750   0.00000  Uiso   1.00
C195   C     1.03129   1.01169   0.63222   0.00000  Uiso   1.00
O196   O     0.84918   0.97291   0.60502   0.00000  Uiso   1.00
C197   C     0.56043   0.42270   0.65942   0.00000  Uiso   1.00
C198   C     0.85351   0.89554   0.70844   0.00000  Uiso   1.00
O199   O     0.90676   1.05371   0.72899   0.00000  Uiso   1.00
H200   H    -0.31332   0.11306   0.23976   0.00000  Uiso   1.00
H201   H    -0.26905   0.11409   0.14374   0.00000  Uiso   1.00
H202   H    -0.21508   0.19543   0.21187   0.00000  Uiso   1.00
H203   H     0.97206   0.23327   0.18374   0.00000  Uiso   1.00
H204   H     1.01510   0.17726   0.20001   0.00000  Uiso   1.00
H205   H     0.96605   0.22807   0.27284   0.00000  Uiso   1.00
H206   H     0.15467   0.06137   0.10184   0.00000  Uiso   1.00
H207   H     0.03680   0.04669   0.13683   0.00000  Uiso   1.00
H208   H     0.14918   0.14962   0.14508   0.00000  Uiso   1.00
H209   H    -0.08288  -0.00845   1.00514   0.00000  Uiso   1.00
H210   H    -0.00714  -0.04197   0.98867   0.00000  Uiso   1.00
H211   H    -0.00976   0.00506   0.92631   0.00000  Uiso   1.00
H212   H     0.23121  -0.02636   0.30045   0.00000  Uiso   1.00
H213   H     0.20537  -0.02478   0.40030   0.00000  Uiso   1.00
H214   H     0.31853  -0.02615   0.35131   0.00000  Uiso   1.00
H215   H     0.41731   1.11191   0.25647   0.00000  Uiso   1.00
H216   H     0.48691   1.10349   0.30916   0.00000  Uiso   1.00
H217   H     0.50750   1.19611   0.32137   0.00000  Uiso   1.00
H218   H     0.32138   1.21668   0.40672   0.00000  Uiso   1.00
H219   H     0.21142   1.12552   0.40642   0.00000  Uiso   1.00
H220   H     0.26212   1.14944   0.32125   0.00000  Uiso   1.00
H221   H     0.07987   0.15106   0.48188   0.00000  Uiso   1.00
H222   H     0.01017   0.11922   0.56456   0.00000  Uiso   1.00
H223   H     0.10826   0.21796   0.56870   0.00000  Uiso   1.00
H224   H     0.14900  -0.00486   0.74694   0.00000  Uiso   1.00
H225   H     0.03845  -0.02624   0.80883   0.00000  Uiso   1.00
H226   H     0.03324  -0.10092   0.74418   0.00000  Uiso   1.00
H227   H    -0.14932   0.06360   0.08168   0.00000  Uiso   1.00
H228   H    -0.25426  -0.01167   0.12653   0.00000  Uiso   1.00
H229   H    -0.12444   0.01040   0.12635   0.00000  Uiso   1.00
H230   H    -0.14052   0.12893  -0.00645   0.00000  Uiso   1.00
H231   H    -0.10408   0.22684  -0.00081   0.00000  Uiso   1.00
H232   H    -0.12314   0.19445   0.08267   0.00000  Uiso   1.00
H233   H     0.06708   0.26205  -0.10111   0.00000  Uiso   1.00
H234   H     0.06538   0.17420  -0.10885   0.00000  Uiso   1.00
H235   H     0.17432   0.27357  -0.08100   0.00000  Uiso   1.00
H236   H     0.06466   0.34979   0.08312   0.00000  Uiso   1.00
H237   H     0.16451   0.36648   0.02535   0.00000  Uiso   1.00
H238   H     0.13611   0.32639   0.11426   0.00000  Uiso   1.00
H239   H     0.20174   0.87067   0.45354   0.00000  Uiso   1.00
H240   H     0.10060   0.83138   0.51977   0.00000  Uiso   1.00
H241   H     0.07897   0.83506   0.43714   0.00000  Uiso   1.00
H242   H     0.93164   0.67303   0.42145   0.00000  Uiso   1.00
H243   H     0.96661   0.65211   0.49285   0.00000  Uiso   1.00
H244   H     0.95715   0.59808   0.40493   0.00000  Uiso   1.00
H245   H     0.09996   0.23756   0.34807   0.00000  Uiso   1.00
H246   H     0.18711   0.25870   0.40753   0.00000  Uiso   1.00
H247   H     0.22400   0.31255   0.34170   0.00000  Uiso   1.00
H248   H     0.05190   0.60719   0.75756   0.00000  Uiso   1.00
H249   H     0.14708   0.63637   0.69124   0.00000  Uiso   1.00
H250   H     0.11758   0.55343   0.73509   0.00000  Uiso   1.00
H251   H    -0.02009   0.60998   0.60971   0.00000  Uiso   1.00
H252   H    -0.06458   0.52505   0.54406   0.00000  Uiso   1.00
H253   H     0.06974   0.59692   0.54460   0.00000  Uiso   1.00
H254   H     0.17749   0.72592   0.51843   0.00000  Uiso   1.00
H255   H     0.27256   0.76143   0.44356   0.00000  Uiso   1.00
H256   H     0.18191   0.66146   0.43805   0.00000  Uiso   1.00
H257   H     0.08338   0.36189   0.25340   0.00000  Uiso   1.00
H258   H     0.21441   0.40531   0.26873   0.00000  Uiso   1.00
H259   H     0.17570   0.46515   0.25307   0.00000  Uiso   1.00
H260   H     0.04430   0.52233   0.36624   0.00000  Uiso   1.00
H261   H     0.02178   0.48625   0.44384   0.00000  Uiso   1.00
H262   H    -0.03715   0.41816   0.36571   0.00000  Uiso   1.00
H263   H     0.30453   0.51160   0.39329   0.00000  Uiso   1.00
H264   H     0.23697   0.53777   0.46305   0.00000  Uiso   1.00
H265   H     0.27553   0.57651   0.37768   0.00000  Uiso   1.00
H266   H    -0.07073   0.49881   0.83658   0.00000  Uiso   1.00
H267   H     0.01831   0.53320   0.90163   0.00000  Uiso   1.00
H268   H    -0.12217   0.47986   0.92712   0.00000  Uiso   1.00
H269   H     1.03071   0.34285   0.78143   0.00000  Uiso   1.00
H270   H     1.10707   0.45075   0.80704   0.00000  Uiso   1.00
H271   H     1.01021   0.40112   0.74515   0.00000  Uiso   1.00
H272   H    -0.10615   0.36555   0.98708   0.00000  Uiso   1.00
H273   H     0.01472   0.44140   0.97253   0.00000  Uiso   1.00
H274   H    -0.01741   0.34112   0.93856   0.00000  Uiso   1.00
H275   H     0.26189   0.85299   1.00785   0.00000  Uiso   1.00
H276   H     0.16242   0.83675   0.97070   0.00000  Uiso   1.00
H277   H     0.27972   0.91349   0.94955   0.00000  Uiso   1.00
H278   H     0.21008   0.65567   0.84811   0.00000  Uiso   1.00
H279   H     0.11766   0.67155   0.91189   0.00000  Uiso   1.00
H280   H     0.23807   0.69801   0.94215   0.00000  Uiso   1.00
H281   H     0.38980   0.76911   0.81849   0.00000  Uiso   1.00
H282   H     0.42524   0.82602   0.90883   0.00000  Uiso   1.00
H283   H     0.43289   0.87352   0.83692   0.00000  Uiso   1.00
H284   H    -0.02920   0.68674   0.91279   0.00000  Uiso   1.00
H285   H     0.05382   0.72630   0.83746   0.00000  Uiso   1.00
H286   H    -0.07671   0.64887   0.82760   0.00000  Uiso   1.00
H287   H     0.11048   0.81375   0.67434   0.00000  Uiso   1.00
H288   H     0.06552   0.74062   0.72508   0.00000  Uiso   1.00
H289   H     0.15833   0.74971   0.65502   0.00000  Uiso   1.00
H290   H     0.54576   0.31557   0.16995   0.00000  Uiso   1.00
H291   H     0.55523   0.25672   0.22327   0.00000  Uiso   1.00
H292   H     0.43763   0.22226   0.18868   0.00000  Uiso   1.00
H293   H     0.72323   1.30651   0.12496   0.00000  Uiso   1.00
H294   H     0.68715   1.30604   0.03687   0.00000  Uiso   1.00
H295   H     0.72173   1.23995   0.04858   0.00000  Uiso   1.00
H296   H     0.49229  -0.02745   0.41207   0.00000  Uiso   1.00
H297   H     0.40501  -0.01590   0.47860   0.00000  Uiso   1.00
H298   H     0.38278  -0.11135   0.42084   0.00000  Uiso   1.00
H299   H     0.58271   0.88242   0.44058   0.00000  Uiso   1.00
H300   H     0.45994   0.80146   0.46218   0.00000  Uiso   1.00
H301   H     0.54206   0.84413   0.52583   0.00000  Uiso   1.00
H302   H     0.57376   0.31652   0.53354   0.00000  Uiso   1.00
H303   H     0.46926   0.32098   0.53253   0.00000  Uiso   1.00
H304   H     0.51831   0.29668   0.45295   0.00000  Uiso   1.00
H305   H     0.23982   0.11268   0.58402   0.00000  Uiso   1.00
H306   H     0.27288   0.19772   0.55157   0.00000  Uiso   1.00
H307   H     0.31614   0.20953   0.63228   0.00000  Uiso   1.00
H308   H     0.31352   0.21218   0.86484   0.00000  Uiso   1.00
H309   H     0.20898   0.12278   0.81193   0.00000  Uiso   1.00
H310   H     0.33060   0.14069   0.79917   0.00000  Uiso   1.00
H311   H     0.33724   0.01993   0.69649   0.00000  Uiso   1.00
H312   H     0.32948  -0.00683   0.60384   0.00000  Uiso   1.00
H313   H     0.29246   0.05940   0.64893   0.00000  Uiso   1.00
H314   H     0.48662   0.19618   0.76094   0.00000  Uiso   1.00
H315   H     0.43732   0.23031   0.71081   0.00000  Uiso   1.00
H316   H     0.56441   0.26160   0.69585   0.00000  Uiso   1.00
H317   H     0.40694   0.36201   0.16575   0.00000  Uiso   1.00
H318   H     0.37210   0.26049   0.13451   0.00000  Uiso   1.00
H319   H     0.30492   0.28965   0.11184   0.00000  Uiso   1.00
H320   H     0.39150   0.54412   0.49727   0.00000  Uiso   1.00
H321   H     0.39828   0.56123   0.59456   0.00000  Uiso   1.00
H322   H     0.29194   0.54275   0.55720   0.00000  Uiso   1.00
H323   H     0.37340   0.40792   0.43555   0.00000  Uiso   1.00
H324   H     0.31547   0.32637   0.48107   0.00000  Uiso   1.00
H325   H     0.42426   0.41464   0.51673   0.00000  Uiso   1.00
H326   H     0.61699   0.40943   0.29729   0.00000  Uiso   1.00
H327   H     0.49332   0.37653   0.29917   0.00000  Uiso   1.00
H328   H     0.55801   0.43578   0.37535   0.00000  Uiso   1.00
H329   H     0.76360   0.64701   0.29626   0.00000  Uiso   1.00
H330   H     0.80395   0.58064   0.26910   0.00000  Uiso   1.00
H331   H     0.74260   0.58377   0.35832   0.00000  Uiso   1.00
H332   H     0.37252   0.34998   0.72889   0.00000  Uiso   1.00
H333   H     0.29316   0.29200   0.79996   0.00000  Uiso   1.00
H334   H     0.42962   0.34845   0.79659   0.00000  Uiso   1.00
H335   H     0.18800   0.38977   0.90486   0.00000  Uiso   1.00
H336   H     0.19660   0.36179   0.80691   0.00000  Uiso   1.00
H337   H     0.23528   0.45744   0.84377   0.00000  Uiso   1.00
H338   H     0.46325   0.50351   0.15970   0.00000  Uiso   1.00
H339   H     0.33440   0.43387   0.13710   0.00000  Uiso   1.00
H340   H     0.35978   0.51543   0.21376   0.00000  Uiso   1.00
H341   H     0.24247   0.52272   0.11640   0.00000  Uiso   1.00
H342   H     0.28275   0.49262   0.02586   0.00000  Uiso   1.00
H343   H     0.31600   0.59002   0.04761   0.00000  Uiso   1.00
H344   H     0.33715   1.07518   0.12727   0.00000  Uiso   1.00
H345   H     0.28468   0.97907   0.14552   0.00000  Uiso   1.00
H346   H     0.31239   1.00635   0.05440   0.00000  Uiso   1.00
H347   H     0.56325   1.02269  -0.00706   0.00000  Uiso   1.00
H348   H     0.45715   1.00982  -0.03712   0.00000  Uiso   1.00
H349   H     0.45175   0.93650  -0.00030   0.00000  Uiso   1.00
H350   H     0.45123   1.00303   0.21745   0.00000  Uiso   1.00
H351   H     0.53057   0.98038   0.14244   0.00000  Uiso   1.00
H352   H     0.39503   0.92128   0.14891   0.00000  Uiso   1.00
H353   H     0.18670   0.41219   0.66833   0.00000  Uiso   1.00
H354   H     0.31469   0.43768   0.67187   0.00000  Uiso   1.00
H355   H     0.23148   0.34310   0.63392   0.00000  Uiso   1.00
H356   H     0.56862   0.64969   0.50707   0.00000  Uiso   1.00
H357   H     0.65042   0.67266   0.57398   0.00000  Uiso   1.00
H358   H     0.66920   0.63612   0.48115   0.00000  Uiso   1.00
H359   H     0.54073   0.59067   0.28991   0.00000  Uiso   1.00
H360   H     0.57904   0.59251   0.37011   0.00000  Uiso   1.00
H361   H     0.46452   0.50455   0.32906   0.00000  Uiso   1.00
H362   H     0.90752   0.85967   0.47827   0.00000  Uiso   1.00
H363   H     0.86656   0.76735   0.42993   0.00000  Uiso   1.00
H364   H     0.86991   0.77513   0.52313   0.00000  Uiso   1.00
H365   H     0.70171   0.72944   0.36177   0.00000  Uiso   1.00
H366   H     0.75259   0.83158   0.38184   0.00000  Uiso   1.00
H367   H     0.63115   0.77056   0.40839   0.00000  Uiso   1.00
H368   H     0.36082   0.74309   0.66962   0.00000  Uiso   1.00
H369   H     0.39691   0.75246   0.58150   0.00000  Uiso   1.00
H370   H     0.28059   0.72972   0.60792   0.00000  Uiso   1.00
H371   H     0.50380   0.55611   0.67127   0.00000  Uiso   1.00
H372   H     0.61049   0.64456   0.70114   0.00000  Uiso   1.00
H373   H     0.50852   0.64723   0.68439   0.00000  Uiso   1.00
H374   H     0.33175   0.58746   0.78838   0.00000  Uiso   1.00
H375   H     0.42421   0.68115   0.82811   0.00000  Uiso   1.00
H376   H     0.35554   0.60168   0.87723   0.00000  Uiso   1.00
H377   H     0.50386   0.75731   0.62674   0.00000  Uiso   1.00
H378   H     0.49862   0.76615   0.72430   0.00000  Uiso   1.00
H379   H     0.61981   0.79068   0.67249   0.00000  Uiso   1.00
H380   H     0.59205   0.89340   0.81030   0.00000  Uiso   1.00
H381   H     0.64179   0.98877   0.79532   0.00000  Uiso   1.00
H382   H     0.71352   0.95243   0.77833   0.00000  Uiso   1.00
H383   H     0.54927  -0.09471   0.31999   0.00000  Uiso   1.00
H384   H     0.63088  -0.10100   0.25361   0.00000  Uiso   1.00
H385   H     0.58650  -0.04113   0.25175   0.00000  Uiso   1.00
H386   H     1.08665   0.23495   0.75957   0.00000  Uiso   1.00
H387   H     1.03915   0.26053   0.69931   0.00000  Uiso   1.00
H388   H     1.07881   0.19382   0.67572   0.00000  Uiso   1.00
H389   H     0.44583   0.01760   0.83341   0.00000  Uiso   1.00
H390   H     0.51135   0.05268   0.75560   0.00000  Uiso   1.00
H391   H     0.42610   0.08446   0.80899   0.00000  Uiso   1.00
H392   H     0.73318   0.19598   0.90690   0.00000  Uiso   1.00
H393   H     0.64439   0.08980   0.87945   0.00000  Uiso   1.00
H394   H     0.62521   0.14403   0.96048   0.00000  Uiso   1.00
H395   H     0.98867   0.58694   0.24838   0.00000  Uiso   1.00
H396   H     1.10892   0.61082   0.20865   0.00000  Uiso   1.00
H397   H     1.03088   0.61839   0.16342   0.00000  Uiso   1.00
H398   H     1.26850   0.77015   0.18867   0.00000  Uiso   1.00
H399   H     1.24387   0.84380   0.22717   0.00000  Uiso   1.00
H400   H     1.18347   0.77795   0.14667   0.00000  Uiso   1.00
H401   H     1.04222   0.80567   0.31774   0.00000  Uiso   1.00
H402   H     0.95096   0.71100   0.30534   0.00000  Uiso   1.00
H403   H     0.99853   0.75971   0.23508   0.00000  Uiso   1.00
H404   H     0.80093   0.46856   0.06863   0.00000  Uiso   1.00
H405   H     0.73532   0.43267   0.15196   0.00000  Uiso   1.00
H406   H     0.82898   0.53143   0.14068   0.00000  Uiso   1.00
H407   H     0.62897   0.23687   0.45221   0.00000  Uiso   1.00
H408   H     0.54671   0.14103   0.41940   0.00000  Uiso   1.00
H409   H     0.64218   0.20004   0.36081   0.00000  Uiso   1.00
H410   H     0.82548   0.24325   0.35441   0.00000  Uiso   1.00
H411   H     0.88012   0.20715   0.39139   0.00000  Uiso   1.00
H412   H     0.86456   0.28346   0.44782   0.00000  Uiso   1.00
H413   H     1.08342   0.44949   0.61957   0.00000  Uiso   1.00
H414   H     1.07967   0.48152   0.54290   0.00000  Uiso   1.00
H415   H     0.96540   0.38895   0.57315   0.00000  Uiso   1.00
H416   H     0.52500   0.34233   0.85383   0.00000  Uiso   1.00
H417   H     0.60898   0.35716   0.91005   0.00000  Uiso   1.00
H418   H     0.64229   0.35828   0.81678   0.00000  Uiso   1.00
H419   H     0.80993   0.52489   0.85423   0.00000  Uiso   1.00
H420   H     0.75532   0.51339   0.94705   0.00000  Uiso   1.00
H421   H     0.77896   0.59373   0.91028   0.00000  Uiso   1.00
H422   H     0.78774   0.36232   0.55584   0.00000  Uiso   1.00
H423   H     0.68221   0.28971   0.58551   0.00000  Uiso   1.00
H424   H     0.79065   0.29042   0.58043   0.00000  Uiso   1.00
H425   H     0.88281   0.65894   0.14907   0.00000  Uiso   1.00
H426   H     0.93963   0.73510   0.08756   0.00000  Uiso   1.00
H427   H     0.89957   0.63408   0.04908   0.00000  Uiso   1.00
H428   H     0.71510   0.66794   0.21254   0.00000  Uiso   1.00
H429   H     0.63527   0.67535   0.16902   0.00000  Uiso   1.00
H430   H     0.76292   0.75126   0.17889   0.00000  Uiso   1.00
H431   H     0.55485   0.83730   0.15850   0.00000  Uiso   1.00
H432   H     0.45143   0.82704   0.20900   0.00000  Uiso   1.00
H433   H     0.43504   0.76969   0.11694   0.00000  Uiso   1.00
H434   H     0.29224   0.64636   0.19089   0.00000  Uiso   1.00
H435   H     0.30461   0.68227   0.28651   0.00000  Uiso   1.00
H436   H     0.31071   0.59962   0.24863   0.00000  Uiso   1.00
H437   H     0.77693   0.85891   0.01233   0.00000  Uiso   1.00
H438   H     0.83999   0.85659   0.08203   0.00000  Uiso   1.00
H439   H     0.70323   0.80266   0.08320   0.00000  Uiso   1.00
H440   H     0.82707   0.87969   0.27142   0.00000  Uiso   1.00
H441   H     0.93325   0.92962   0.20982   0.00000  Uiso   1.00
H442   H     0.85416   0.97225   0.25303   0.00000  Uiso   1.00
H443   H     0.52226   0.78933   0.31782   0.00000  Uiso   1.00
H444   H     0.62036   0.77845   0.25170   0.00000  Uiso   1.00
H445   H     0.54158   0.70306   0.29310   0.00000  Uiso   1.00
H446   H     1.02887   0.90732   0.28680   0.00000  Uiso   1.00
H447   H     0.95799   0.88213   0.36576   0.00000  Uiso   1.00
H448   H     1.07471   0.97541   0.37068   0.00000  Uiso   1.00
H449   H     1.02188   1.10075   0.28194   0.00000  Uiso   1.00
H450   H     1.11665   1.08071   0.26970   0.00000  Uiso   1.00
H451   H     1.08706   1.12433   0.35591   0.00000  Uiso   1.00
H452   H     0.82703   0.59379   0.69966   0.00000  Uiso   1.00
H453   H     0.72479   0.58264   0.66751   0.00000  Uiso   1.00
H454   H     0.78039   0.52785   0.61537   0.00000  Uiso   1.00
H455   H     0.86639   0.80774   0.80081   0.00000  Uiso   1.00
H456   H     0.82580   0.70343   0.78808   0.00000  Uiso   1.00
H457   H     0.93914   0.77233   0.74710   0.00000  Uiso   1.00
H458   H     0.69976   0.78696   0.80417   0.00000  Uiso   1.00
H459   H     0.73847   0.85670   0.88531   0.00000  Uiso   1.00
H460   H     0.62186   0.82394   0.86282   0.00000  Uiso   1.00
H461   H     0.93070   1.22604   0.84658   0.00000  Uiso   1.00
H462   H     0.90599   1.13811   0.87195   0.00000  Uiso   1.00
H463   H     0.80826   1.13777   0.83893   0.00000  Uiso   1.00
H464   H     0.57127   0.74984   1.01339   0.00000  Uiso   1.00
H465   H     0.48201   0.65679   0.97829   0.00000  Uiso   1.00
H466   H     0.48807   0.73620   0.95527   0.00000  Uiso   1.00
H467   H     1.07629   1.01621   0.67272   0.00000  Uiso   1.00
H468   H     1.06946   1.06720   0.61398   0.00000  Uiso   1.00
H469   H     1.01905   0.96723   0.58661   0.00000  Uiso   1.00
H470   H     0.50997   0.44357   0.68524   0.00000  Uiso   1.00
H471   H     0.51703   0.35843   0.66149   0.00000  Uiso   1.00
H472   H     0.58619   0.43419   0.60284   0.00000  Uiso   1.00
H473   H     0.77733   0.86934   0.72018   0.00000  Uiso   1.00
H474   H     0.88426   0.90876   0.75683   0.00000  Uiso   1.00
H475   H     0.86783   0.85147   0.67354   0.00000  Uiso   1.00
loop_
_geom_bond_atom_site_label_1
_geom_bond_atom_site_label_2
_geom_bond_distance
_geom_bond_site_symmetry_2
_ccdc_geom_bond_type
Si1    C52     1.854   .     S
Si1    C61     1.894   .     S
Si1    C53     1.841   1_455 S
Si1    O138    1.578   1_455 S
Si2    C54     1.888   .     S
Si2    O63     1.617   .     S
Si2    C55     1.877   1_554 S
Si2    O99     1.594   1_554 S
Si3    C56     1.929   .     S
Si3    O93     1.609   .     S
Si3    C57     1.832   1_545 S
Si3    C58     1.903   1_545 S
Si4    C59     1.841   .     S
Si4    O68     1.566   .     S
Si4    O135    1.586   1_455 S
Si4    O145    1.582   1_455 S
Si5    C60     1.863   .     S
Si5    O96     1.594   .     S
Si5    O84     1.566   1_545 S
Si5    O87     1.604   1_545 S
Si6    C62     1.940   .     S
Si6    O63     1.606   .     S
Si6    C64     1.848   .     S
Si6    C65     1.847   .     S
Si7    C66     1.830   .     S
Si7    C72     1.885   .     S
Si7    C67     1.914   1_455 S
Si7    O151    1.583   1_455 S
Si8    O68     1.568   .     S
Si8    C69     1.873   .     S
Si8    O74     1.602   .     S
Si8    O106    1.614   .     S
Si9    C70     1.964   .     S
Si9    C71     1.880   .     S
Si9    C159    1.839   1_455 S
Si9    O166    1.557   1_455 S
Si10   C73     1.894   .     S
Si10   O74     1.602   .     S
Si10   C75     1.827   .     S
Si10   C76     1.848   .     S
Si11   C77     1.873   .     S
Si11   C79     1.833   .     S
Si11   C78     1.902   1_455 S
Si11   O162    1.655   1_455 S
Si12   C80     1.898   .     S
Si12   C81     1.856   .     S
Si12   C82     1.837   .     S
Si12   O86     1.645   .     S
Si13   C83     1.779   .     S
Si13   O84     1.639   .     S
Si13   O175    1.586   1_455 S
Si13   C189    1.929   1_455 S
Si14   C85     1.855   .     S
Si14   O86     1.589   .     S
Si14   O87     1.559   .     S
Si14   O128    1.583   .     S
Si15   C88     1.799   .     S
Si15   O90     1.572   .     S
Si15   C89     1.833   1_545 S
Si15   O119    1.594   1_545 S
Si16   O90     1.645   .     S
Si16   O104    1.582   .     S
Si16   O97     1.547   1_554 S
Si16   O144    1.574   1_554 S
Si17   C91     1.940   .     S
Si17   O136    1.571   .     S
Si17   C92     1.852   1_545 S
Si17   O127    1.571   1_545 S
Si18   O93     1.572   .     S
Si18   C94     1.856   .     S
Si18   C95     1.887   .     S
Si18   O100    1.584   .     S
Si19   O96     1.623   .     S
Si19   O97     1.650   .     S
Si19   C98     1.840   .     S
Si19   O99     1.615   .     S
Si20   O100    1.583   .     S
Si20   C101    1.924   .     S
Si20   C102    1.915   .     S
Si20   O137    1.653   .     S
Si21   C103    1.882   .     S
Si21   O104    1.581   .     S
Si21   O105    1.591   .     S
Si21   O152    1.587   .     S
Si22   O105    1.621   .     S
Si22   O115    1.635   .     S
Si22   O112    1.588   1_554 S
Si22   O165    1.590   1_554 S
Si23   O106    1.567   .     S
Si23   C107    1.871   .     S
Si23   C108    1.926   .     S
Si23   C121    1.882   .     S
Si24   C109    1.859   .     S
Si24   C110    1.914   .     S
Si24   C123    1.860   .     S
Si24   O154    1.584   .     S
Si25   C111    1.820   .     S
Si25   O112    1.551   .     S
Si25   C113    1.909   .     S
Si25   O129    1.598   .     S
Si26   C114    1.907   .     S
Si26   O115    1.583   .     S
Si26   C116    1.866   .     S
Si26   O172    1.643   .     S
Si27   C117    1.859   .     S
Si27   C118    1.868   .     S
Si27   O119    1.614   .     S
Si27   C120    1.894   .     S
Si28   C122    1.915   .     S
Si28   C124    1.880   .     S
Si28   C125    1.845   .     S
Si28   O178    1.573   .     S
Si29   C126    1.779   .     S
Si29   O127    1.581   .     S
Si29   O128    1.579   .     S
Si29   O131    1.590   .     S
Si30   O129    1.660   .     S
Si30   C130    1.857   .     S
Si30   C132    1.819   .     S
Si30   O190    1.564   .     S
Si31   O131    1.580   .     S
Si31   C133    1.886   .     S
Si31   C134    1.831   .     S
Si31   O180    1.572   .     S
Si32   O135    1.620   .     S
Si32   O140    1.592   .     S
Si32   O179    1.606   1_545 S
Si32   O185    1.588   1_545 S
Si33   O136    1.545   .     S
Si33   O137    1.612   .     S
Si33   O146    1.542   .     S
Si33   O155    1.604   .     S
Si34   O138    1.649   .     S
Si34   C139    1.895   .     S
Si34   O140    1.588   .     S
Si34   O156    1.600   .     S
Si35   C141    1.884   .     S
Si35   O147    1.548   .     S
Si35   C193    1.817   1_545 S
Si35   O199    1.595   1_545 S
Si36   C142    1.919   .     S
Si36   C143    1.864   .     S
Si36   O144    1.658   .     S
Si36   O160    1.593   .     S
Si37   O145    1.610   .     S
Si37   O146    1.602   .     S
Si37   O147    1.588   .     S
Si37   O161    1.639   .     S
Si38   C148    1.810   .     S
Si38   C149    1.857   .     S
Si38   C150    1.832   .     S
Si38   O151    1.607   .     S
Si39   O152    1.589   .     S
Si39   C153    1.797   .     S
Si39   O154    1.565   .     S
Si39   O169    1.574   .     S
Si40   O155    1.574   .     S
Si40   O156    1.615   .     S
Si40   C157    1.859   .     S
Si40   C158    1.871   .     S
Si41   O160    1.608   .     S
Si41   O161    1.577   .     S
Si41   O162    1.542   .     S
Si41   O168    1.569   .     S
Si42   C163    1.836   .     S
Si42   C164    1.765   .     S
Si42   O165    1.607   .     S
Si42   O186    1.578   .     S
Si43   O166    1.613   .     S
Si43   C167    1.862   .     S
Si43   O168    1.579   .     S
Si43   O187    1.593   .     S
Si44   O169    1.605   .     S
Si44   C170    1.881   .     S
Si44   C171    1.864   .     S
Si44   O176    1.565   .     S
Si45   O172    1.607   .     S
Si45   C173    1.900   .     S
Si45   C174    1.852   .     S
Si45   C182    1.891   .     S
Si46   O176    1.571   .     S
Si46   C177    1.904   .     S
Si46   O175    1.628   1_554 S
Si46   O191    1.552   1_554 S
Si47   O178    1.622   .     S
Si47   O179    1.641   .     S
Si47   O180    1.574   .     S
Si47   O196    1.602   .     S
Si48   C181    1.740   .     S
Si48   C183    1.831   .     S
Si48   C184    1.824   .     S
Si48   O185    1.637   .     S
Si49   O186    1.619   .     S
Si49   O187    1.575   .     S
Si49   C188    1.836   .     S
Si49   C197    1.895   .     S
Si50   O190    1.543   .     S
Si50   O191    1.592   .     S
Si50   C192    1.916   .     S
Si50   C194    1.816   .     S
Si51   C195    1.890   .     S
Si51   O196    1.607   .     S
Si51   C198    1.851   .     S
Si51   O199    1.588   .     S
C52    H200    1.095   .     S
C52    H201    1.098   .     S
C52    H202    1.091   .     S
C53    H203    1.096   .     S
C53    H204    1.127   .     S
C53    H205    1.081   .     S
C53    Si1     1.841   1_655 S
C54    H206    1.114   .     S
C54    H207    1.132   .     S
C54    H208    1.174   .     S
C55    H209    1.075   .     S
C55    H210    1.086   .     S
C55    H211    1.082   .     S
C55    Si2     1.877   1_556 S
C56    H212    1.117   .     S
C56    H213    1.164   .     S
C56    H214    1.152   .     S
C57    H215    1.125   .     S
C57    H216    1.080   .     S
C57    H217    1.134   .     S
C57    Si3     1.832   1_565 S
C58    H218    1.159   .     S
C58    H219    1.088   .     S
C58    H220    1.083   .     S
C58    Si3     1.903   1_565 S
C59    H221    1.146   .     S
C59    H222    1.099   .     S
C59    H223    1.111   .     S
C60    H224    1.101   .     S
C60    H225    1.106   .     S
C60    H226    1.134   .     S
C61    H227    1.111   .     S
C61    H228    1.140   .     S
C61    H229    1.146   .     S
C62    H230    1.127   .     S
C62    H231    1.112   .     S
C62    H232    1.138   .     S
C64    H233    1.081   .     S
C64    H234    1.138   .     S
C64    H235    1.136   .     S
C65    H236    1.057   .     S
C65    H237    1.138   .     S
C65    H238    1.123   .     S
C66    H239    1.084   .     S
C66    H240    1.086   .     S
C66    H241    1.118   .     S
C67    H242    1.097   .     S
C67    H243    1.100   .     S
C67    H244    1.103   .     S
C67    Si7     1.914   1_655 S
C69    H245    1.104   .     S
C69    H246    0.988   .     S
C69    H247    1.101   .     S
C70    H248    1.113   .     S
C70    H249    1.132   .     S
C70    H250    1.124   .     S
C71    H251    1.093   .     S
C71    H252    1.144   .     S
C71    H253    1.150   .     S
C72    H254    1.124   .     S
C72    H255    1.094   .     S
C72    H256    1.083   .     S
C73    H257    1.096   .     S
C73    H258    1.105   .     S
C73    H259    1.116   .     S
C75    H260    1.144   .     S
C75    H261    1.088   .     S
C75    H262    1.141   .     S
C76    H263    1.165   .     S
C76    H264    1.104   .     S
C76    H265    1.099   .     S
C77    H266    1.104   .     S
C77    H267    1.152   .     S
C77    H268    1.114   .     S
C78    H269    1.165   .     S
C78    H270    1.084   .     S
C78    H271    1.112   .     S
C78    Si11    1.902   1_655 S
C79    H272    1.125   .     S
C79    H273    1.103   .     S
C79    H274    1.070   .     S
C80    H275    1.081   .     S
C80    H276    1.129   .     S
C80    H277    1.101   .     S
C81    H278    1.121   .     S
C81    H279    1.135   .     S
C81    H280    1.130   .     S
C82    H281    1.125   .     S
C82    H282    1.133   .     S
C82    H283    1.115   .     S
C83    H284    1.135   .     S
C83    H285    1.104   .     S
C83    H286    1.153   .     S
O84    Si5     1.566   1_565 S
C85    H287    1.071   .     S
C85    H288    1.053   .     S
C85    H289    1.123   .     S
O87    Si5     1.604   1_565 S
C88    H290    1.144   .     S
C88    H291    1.112   .     S
C88    H292    1.116   .     S
C89    H293    1.141   .     S
C89    H294    1.117   .     S
C89    H295    1.102   .     S
C89    Si15    1.833   1_565 S
C91    H296    1.071   .     S
C91    H297    1.141   .     S
C91    H298    1.098   .     S
C92    H299    1.120   .     S
C92    H300    1.095   .     S
C92    H301    1.114   .     S
C92    Si17    1.852   1_565 S
C94    H302    1.129   .     S
C94    H303    1.085   .     S
C94    H304    1.111   .     S
C95    H305    1.108   .     S
C95    H306    1.083   .     S
C95    H307    1.110   .     S
O97    Si16    1.547   1_556 S
C98    H308    1.143   .     S
C98    H309    1.115   .     S
C98    H310    1.108   .     S
O99    Si2     1.594   1_556 S
C101   H311    1.135   .     S
C101   H312    1.045   .     S
C101   H313    1.110   .     S
C102   H314    1.149   .     S
C102   H315    1.128   .     S
C102   H316    1.075   .     S
C103   H317    1.040   .     S
C103   H318    1.126   .     S
C103   H319    1.145   .     S
C107   H320    1.088   .     S
C107   H321    1.123   .     S
C107   H322    1.103   .     S
C108   H323    1.082   .     S
C108   H324    1.072   .     S
C108   H325    1.161   .     S
C109   H326    1.051   .     S
C109   H327    1.064   .     S
C109   H328    1.104   .     S
C110   H329    1.194   .     S
C110   H330    1.099   .     S
C110   H331    1.117   .     S
C111   H332    1.097   .     S
C111   H333    1.114   .     S
C111   H334    1.115   .     S
O112   Si22    1.588   1_556 S
C113   H335    1.143   .     S
C113   H336    1.115   .     S
C113   H337    1.060   .     S
C114   H338    1.110   .     S
C114   H339    1.142   .     S
C114   H340    1.127   .     S
C116   H341    1.121   .     S
C116   H342    1.054   .     S
C116   H343    1.161   .     S
C117   H344    1.096   .     S
C117   H345    1.117   .     S
C117   H346    1.108   .     S
C118   H347    1.064   .     S
C118   H348    1.118   .     S
C118   H349    1.104   .     S
O119   Si15    1.594   1_565 S
C120   H350    1.137   .     S
C120   H351    1.174   .     S
C120   H352    1.123   .     S
C121   H353    1.140   .     S
C121   H354    1.148   .     S
C121   H355    1.097   .     S
C122   H356    1.097   .     S
C122   H357    1.169   .     S
C122   H358    1.104   .     S
C123   H359    1.068   .     S
C123   H360    1.142   .     S
C123   H361    1.154   .     S
C124   H362    1.139   .     S
C124   H363    1.092   .     S
C124   H364    1.144   .     S
C125   H365    1.097   .     S
C125   H366    1.119   .     S
C125   H367    1.010   .     S
C126   H368    1.084   .     S
C126   H369    1.064   .     S
C126   H370    1.103   .     S
O127   Si17    1.571   1_565 S
C130   H371    1.100   .     S
C130   H372    1.128   .     S
C130   H373    1.116   .     S
C132   H374    1.038   .     S
C132   H375    1.110   .     S
C132   H376    1.090   .     S
C133   H377    1.157   .     S
C133   H378    1.114   .     S
C133   H379    1.137   .     S
C134   H380    1.083   .     S
C134   H381    1.063   .     S
C134   H382    1.076   .     S
O135   Si4     1.586   1_655 S
O138   Si1     1.578   1_655 S
C139   H383    1.076   .     S
C139   H384    1.078   .     S
C139   H385    1.110   .     S
C141   H386    1.104   .     S
C141   H387    1.136   .     S
C141   H388    1.044   .     S
C142   H389    1.092   .     S
C142   H390    1.141   .     S
C142   H391    1.130   .     S
C143   H392    1.091   .     S
C143   H393    1.137   .     S
C143   H394    1.096   .     S
O144   Si16    1.574   1_556 S
O145   Si4     1.582   1_655 S
C148   H395    1.073   .     S
C148   H396    1.104   .     S
C148   H397    1.109   .     S
C149   H398    1.118   .     S
C149   H399    1.096   .     S
C149   H400    1.134   .     S
C150   H401    1.099   .     S
C150   H402    1.060   .     S
C150   H403    1.083   .     S
O151   Si7     1.583   1_655 S
C153   H404    1.090   .     S
C153   H405    1.098   .     S
C153   H406    1.109   .     S
C157   H407    1.049   .     S
C157   H408    1.095   .     S
C157   H409    1.103   .     S
C158   H410    1.106   .     S
C158   H411    1.101   .     S
C158   H412    1.113   .     S
C159   H413    1.109   .     S
C159   H414    1.081   .     S
C159   H415    1.170   .     S
C159   Si9     1.839   1_655 S
O162   Si11    1.655   1_655 S
C163   H416    1.117   .     S
C163   H417    1.098   .     S
C163   H418    1.105   .     S
C164   H419    1.133   .     S
C164   H420    1.093   .     S
C164   H421    1.073   .     S
O165   Si22    1.590   1_556 S
O166   Si9     1.557   1_655 S
C167   H422    1.069   .     S
C167   H423    1.031   .     S
C167   H424    1.095   .     S
C170   H425    1.172   .     S
C170   H426    1.099   .     S
C170   H427    1.158   .     S
C171   H428    1.097   .     S
C171   H429    1.065   .     S
C171   H430    1.075   .     S
C173   H431    1.068   .     S
C173   H432    1.126   .     S
C173   H433    1.159   .     S
C174   H434    1.134   .     S
C174   H435    1.111   .     S
C174   H436    1.114   .     S
O175   Si13    1.586   1_655 S
O175   Si46    1.628   1_556 S
C177   H437    1.117   .     S
C177   H438    1.113   .     S
C177   H439    1.123   .     S
O179   Si32    1.606   1_565 S
C181   H440    1.124   .     S
C181   H441    1.162   .     S
C181   H442    1.146   .     S
C182   H443    1.184   .     S
C182   H444    1.093   .     S
C182   H445    1.096   .     S
C183   H446    1.102   .     S
C183   H447    1.080   .     S
C183   H448    1.082   .     S
C184   H449    1.113   .     S
C184   H450    1.122   .     S
C184   H451    1.113   .     S
O185   Si32    1.588   1_565 S
C188   H452    1.068   .     S
C188   H453    1.146   .     S
C188   H454    1.116   .     S
C189   H455    1.142   .     S
C189   H456    1.136   .     S
C189   H457    1.025   .     S
C189   Si13    1.929   1_655 S
O191   Si46    1.552   1_556 S
C192   H458    1.059   .     S
C192   H459    1.105   .     S
C192   H460    1.181   .     S
C193   H461    1.142   .     S
C193   H462    1.109   .     S
C193   H463    1.094   .     S
C193   Si35    1.817   1_565 S
C194   H464    1.075   .     S
C194   H465    1.056   .     S
C194   H466    1.129   .     S
C195   H467    1.135   .     S
C195   H468    1.090   .     S
C195   H469    1.078   .     S
C197   H470    1.127   .     S
C197   H471    1.136   .     S
C197   H472    1.130   .     S
C198   H473    1.053   .     S
C198   H474    1.058   .     S
C198   H475    1.120   .     S
O199   Si35    1.595   1_565 S
