data_333-15-11-10-15-30-4
_audit_creation_date              2025-03-07
_audit_creation_method            'Materials Studio'
_symmetry_space_group_name_H-M    'P1'
_symmetry_Int_Tables_number       1
_symmetry_cell_setting            triclinic
loop_
_symmetry_equiv_pos_as_xyz
  x,y,z
_cell_length_a                    16.5795
_cell_length_b                    15.5076
_cell_length_c                    19.5398
_cell_angle_alpha                 86.9792
_cell_angle_beta                  86.0439
_cell_angle_gamma                 115.1489
loop_
_atom_site_label
_atom_site_type_symbol
_atom_site_fract_x
_atom_site_fract_y
_atom_site_fract_z
_atom_site_U_iso_or_equiv
_atom_site_adp_type
_atom_site_occupancy
Si1    Si    0.21579   0.01668   0.13897   0.00000  Uiso   1.00
Si2    Si   -0.00376   0.15817   0.22135   0.00000  Uiso   1.00
Si3    Si    0.28902   0.13919   0.00011   0.00000  Uiso   1.00
Si4    Si   -0.03480   0.14106   0.50513   0.00000  Uiso   1.00
Si5    Si    0.14175   0.15381   0.31838   0.00000  Uiso   1.00
Si6    Si    0.18037  -0.05448   0.79604   0.00000  Uiso   1.00
Si7    Si    0.12823   0.30068   0.10948   0.00000  Uiso   1.00
Si8    Si    0.01434   0.53096   0.23318   0.00000  Uiso   1.00
Si9    Si    0.19963   0.51260   0.06604   0.00000  Uiso   1.00
Si10   Si    0.10890   0.29532   0.40973   0.00000  Uiso   1.00
Si11   Si   -0.00916   0.48417   0.51874   0.00000  Uiso   1.00
Si12   Si    0.13375   0.46821   0.30994   0.00000  Uiso   1.00
Si13   Si   -0.08701   0.48030   0.91878   0.00000  Uiso   1.00
Si14   Si    0.08138   0.42312   0.62260   0.00000  Uiso   1.00
Si15   Si    0.17773   0.67470   0.14206   0.00000  Uiso   1.00
Si16   Si    0.04441   0.86423   0.21941   0.00000  Uiso   1.00
Si17   Si    0.23488   0.86129   0.05123   0.00000  Uiso   1.00
Si18   Si    0.12923   0.69331   0.52133   0.00000  Uiso   1.00
Si19   Si   -0.14793   0.75371   0.57391   0.00000  Uiso   1.00
Si20   Si    0.10124   0.87227   0.95241   0.00000  Uiso   1.00
Si21   Si    0.32371   0.15499   0.24053   0.00000  Uiso   1.00
Si22   Si    0.52408   0.00471   0.39739   0.00000  Uiso   1.00
Si23   Si    0.48783   0.17331   0.56971   0.00000  Uiso   1.00
Si24   Si    0.50456   0.17340   0.32063   0.00000  Uiso   1.00
Si25   Si    0.43870   0.34957   0.17174   0.00000  Uiso   1.00
Si26   Si    0.52676   0.31181   0.43661   0.00000  Uiso   1.00
Si27   Si    0.22467   0.42165   0.51568   0.00000  Uiso   1.00
Si28   Si    0.31209   0.37945   0.63835   0.00000  Uiso   1.00
Si29   Si    0.33778   0.80247   0.21792   0.00000  Uiso   1.00
Si30   Si    0.38099   0.60048   0.44362   0.00000  Uiso   1.00
Si31   Si    0.38924   0.84042   0.96909   0.00000  Uiso   1.00
Si32   Si    0.89546   0.02002   0.11935   0.00000  Uiso   1.00
Si33   Si    0.69642   0.21287   0.23681   0.00000  Uiso   1.00
Si34   Si    0.84098   0.00639   0.41135   0.00000  Uiso   1.00
Si35   Si    0.84495   0.18300   0.32305   0.00000  Uiso   1.00
Si36   Si    0.69761   0.20401   0.80966   0.00000  Uiso   1.00
Si37   Si    0.85072   0.38886   0.16024   0.00000  Uiso   1.00
Si38   Si    0.76232   0.59100   0.24186   0.00000  Uiso   1.00
Si39   Si    0.85431   0.53508   0.05238   0.00000  Uiso   1.00
Si40   Si    0.88100   0.36414   0.40986   0.00000  Uiso   1.00
Si41   Si    0.65062   0.51135   0.47469   0.00000  Uiso   1.00
Si42   Si    0.89151   0.54948   0.33668   0.00000  Uiso   1.00
Si43   Si    0.80340   0.41951   0.79509   0.00000  Uiso   1.00
Si44   Si    0.70652   0.53710   0.97239   0.00000  Uiso   1.00
Si45   Si    0.90996   0.71907   0.12829   0.00000  Uiso   1.00
Si46   Si    0.69923   0.87948   0.11484   0.00000  Uiso   1.00
Si47   Si    0.94581   0.89349   0.02556   0.00000  Uiso   1.00
Si48   Si    0.83986   0.67365   0.42862   0.00000  Uiso   1.00
Si49   Si    0.88617   0.86472   0.32451   0.00000  Uiso   1.00
Si50   Si    0.87108   0.92343   0.89086   0.00000  Uiso   1.00
Si51   Si    0.69710   0.78379   0.64226   0.00000  Uiso   1.00
O52    O     0.23276   0.09500   0.07484   0.00000  Uiso   1.00
C53    C     0.21527   0.14384   0.93422   0.00000  Uiso   1.00
C54    C     0.36044   0.08535   0.96093   0.00000  Uiso   1.00
C55    C     0.05397   0.12300   0.55092   0.00000  Uiso   1.00
C56    C     0.88585   0.17337   0.56126   0.00000  Uiso   1.00
O57    O     0.06574   0.13645   0.26597   0.00000  Uiso   1.00
C58    C     0.09997   0.04535   0.38007   0.00000  Uiso   1.00
C59    C     0.14052   0.00957   0.73243   0.00000  Uiso   1.00
C60    C     0.30596   0.00771   0.78406   0.00000  Uiso   1.00
C61    C     0.15008   0.82700   0.76445   0.00000  Uiso   1.00
O62    O     0.04839   0.24972   0.16706   0.00000  Uiso   1.00
C63    C     0.37180   0.26816  -0.00259   0.00000  Uiso   1.00
C64    C     0.12172   0.26232   0.01914   0.00000  Uiso   1.00
C65    C     0.21305   0.26492   0.13621   0.00000  Uiso   1.00
O66    O     0.16244   0.41332   0.11310   0.00000  Uiso   1.00
C67    C     0.30642   0.53212   1.01683   0.00000  Uiso   1.00
O68    O     0.01702   0.21652   0.44181   0.00000  Uiso   1.00
O69    O     0.15170   0.24229   0.36143   0.00000  Uiso   1.00
C70    C     0.89754   0.51283   0.54671   0.00000  Uiso   1.00
O71    O     0.06275   0.46653   0.25904   0.00000  Uiso   1.00
O72    O     0.09528   0.37520   0.36247   0.00000  Uiso   1.00
C73    C     0.23970   0.48071   0.26277   0.00000  Uiso   1.00
C74    C    -0.10433   0.35852   0.94822   0.00000  Uiso   1.00
C75    C     0.12297   0.50786   1.00211   0.00000  Uiso   1.00
C76    C     0.02996   0.53697   0.86981   0.00000  Uiso   1.00
O77    O     0.00427   0.42902   0.58210   0.00000  Uiso   1.00
C78    C     0.05204   0.30692   0.67289   0.00000  Uiso   1.00
C79    C     0.12391   0.51918   0.68646   0.00000  Uiso   1.00
O80    O     0.07409   0.61489   0.18007   0.00000  Uiso   1.00
O81    O     0.21103   0.59832   0.11108   0.00000  Uiso   1.00
C82    C     0.10639   0.82225   0.27976   0.00000  Uiso   1.00
O83    O     0.11202   0.95893   0.17091   0.00000  Uiso   1.00
O84    O     0.18071   0.75063   0.08276   0.00000  Uiso   1.00
O85    O     0.24544   0.93685   0.10655   0.00000  Uiso   1.00
O86    O     0.07682   0.58503   0.50094   0.00000  Uiso   1.00
C87    C     0.15008   0.57266   0.36190   0.00000  Uiso   1.00
C88    C     0.23017   0.70445   0.55423   0.00000  Uiso   1.00
C89    C     0.13452   0.77869   0.44976   0.00000  Uiso   1.00
C90    C     0.07492   0.72584   0.59411   0.00000  Uiso   1.00
C91    C    -0.12770   0.70518   0.65454   0.00000  Uiso   1.00
C92    C    -0.06313   0.88048   0.55491   0.00000  Uiso   1.00
O93    O     0.18583   0.88305   0.99097   0.00000  Uiso   1.00
O94    O     0.14301   0.93316   0.87648   0.00000  Uiso   1.00
C95    C     1.04067   0.74335   0.94231   0.00000  Uiso   1.00
O96    O     0.27963   0.06490   0.19537   0.00000  Uiso   1.00
O97    O     0.24319   0.16594   0.29051   0.00000  Uiso   1.00
C98    C     0.62634   0.06874   0.43828   0.00000  Uiso   1.00
C99    C     0.43405   0.90758   0.45900   0.00000  Uiso   1.00
C100   C     0.56347   0.95466   0.32374   0.00000  Uiso   1.00
C101   C     0.37498   0.09854   0.55387   0.00000  Uiso   1.00
C102   C     0.54974   0.10179   0.58925   0.00000  Uiso   1.00
C103   C     0.47869   0.23101   0.64844   0.00000  Uiso   1.00
O104   O     0.40865   0.15818   0.28569   0.00000  Uiso   1.00
O105   O     0.48362   0.07652   0.36972   0.00000  Uiso   1.00
O106   O     0.36178   0.24826   0.18679   0.00000  Uiso   1.00
C107   C     0.53544   0.32692   0.14465   0.00000  Uiso   1.00
C108   C     0.42051   0.43790   0.10926   0.00000  Uiso   1.00
O109   O     0.53570   0.24915   0.50268   0.00000  Uiso   1.00
O110   O     0.53590   0.26306   0.36815   0.00000  Uiso   1.00
C111   C     0.40948   0.30654   0.45058   0.00000  Uiso   1.00
O112   O     0.16683   0.33989   0.47095   0.00000  Uiso   1.00
O113   O     0.16342   0.45435   0.56392   0.00000  Uiso   1.00
O114   O     0.27820   0.38505   0.56643   0.00000  Uiso   1.00
C115   C     0.25261   0.24952   0.67602   0.00000  Uiso   1.00
C116   C     0.29473   0.46278   0.69772   0.00000  Uiso   1.00
O117   O     0.23993   0.73096   0.19374   0.00000  Uiso   1.00
C118   C     0.40967   0.73963   0.22485   0.00000  Uiso   1.00
C119   C     0.40714   0.92262   0.16610   0.00000  Uiso   1.00
C120   C     0.31876   0.84546   0.29782   0.00000  Uiso   1.00
O121   O     0.28806   0.51160   0.46119   0.00000  Uiso   1.00
C122   C     0.45054   0.55815   0.38719   0.00000  Uiso   1.00
C123   C     0.36732   0.69498   0.39361   0.00000  Uiso   1.00
C124   C     0.42186   0.65401   0.52095   0.00000  Uiso   1.00
C125   C     0.31685   0.77400   0.90055   0.00000  Uiso   1.00
C126   C     0.43294   0.76757   1.02412   0.00000  Uiso   1.00
C127   C     0.48233   0.94883   0.92142   0.00000  Uiso   1.00
O128   O     0.32956   0.87724   1.01849   0.00000  Uiso   1.00
C129   C     0.88506   0.11379   0.06023   0.00000  Uiso   1.00
O130   O     0.94363   0.06258   0.18515   0.00000  Uiso   1.00
C131   C     0.67927   0.13675   0.16123   0.00000  Uiso   1.00
O132   O     0.59305   0.19202   0.26521   0.00000  Uiso   1.00
O133   O     0.89838   0.04421   0.47156   0.00000  Uiso   1.00
C134   C     0.73748   0.90501   0.44849   0.00000  Uiso   1.00
O135   O     0.92839   0.18766   0.26854   0.00000  Uiso   1.00
O136   O     0.75402   0.17830   0.29044   0.00000  Uiso   1.00
O137   O     0.82049   0.08725   0.36892   0.00000  Uiso   1.00
C138   C     0.57648   0.16545   0.80696   0.00000  Uiso   1.00
C139   C     0.74851   0.18242   0.72672   0.00000  Uiso   1.00
C140   C     0.71220   0.12708   0.87396   0.00000  Uiso   1.00
O141   O     0.75725   0.31954   0.20381   0.00000  Uiso   1.00
C142   C     0.90723   0.31810   0.12858   0.00000  Uiso   1.00
O143   O     0.91761   0.46109   0.20666   0.00000  Uiso   1.00
C144   C     0.45397   0.41464   0.24977   0.00000  Uiso   1.00
C145   C     0.68680   0.49025   0.19397   0.00000  Uiso   1.00
C146   C     0.67829   0.61448   0.29647   0.00000  Uiso   1.00
O147   O     0.90577   0.53671   0.98036   0.00000  Uiso   1.00
O148   O     0.82928   0.43950   0.09573   0.00000  Uiso   1.00
C149   C     0.78109   0.30284   0.47271   0.00000  Uiso   1.00
O150   O     0.88635   0.27958   0.36687   0.00000  Uiso   1.00
O151   O     0.96500   0.42314   0.45332   0.00000  Uiso   1.00
O152   O     0.60210   0.41834   0.43169   0.00000  Uiso   1.00
C153   C     0.67949   0.46283   0.55488   0.00000  Uiso   1.00
C154   C     0.57624   0.56641   0.50985   0.00000  Uiso   1.00
C155   C     0.43810   0.42856   0.63257   0.00000  Uiso   1.00
O156   O     0.97981   0.57243   0.29509   0.00000  Uiso   1.00
O157   O     0.81915   0.55012   0.28567   0.00000  Uiso   1.00
O158   O     0.85793   0.43886   0.36739   0.00000  Uiso   1.00
O159   O     0.74681   0.31640   0.82216   0.00000  Uiso   1.00
C160   C     0.89696   0.42235   0.73392   0.00000  Uiso   1.00
C161   C     0.72795   0.47043   0.76415   0.00000  Uiso   1.00
O162   O     0.84394   0.47266   0.86219   0.00000  Uiso   1.00
C163   C     0.65131   0.41082   0.94439   0.00000  Uiso   1.00
O164   O     0.76527   0.54117   1.03197   0.00000  Uiso   1.00
C165   C     0.77156   0.63833   0.89880   0.00000  Uiso   1.00
C166   C     0.61089   0.56269   1.00330   0.00000  Uiso   1.00
O167   O     0.82315   0.67940   0.18501   0.00000  Uiso   1.00
O168   O     0.91226   0.62972   0.09377   0.00000  Uiso   1.00
O169   O     0.99657   0.77955   0.17057   0.00000  Uiso   1.00
C170   C     0.68773   0.94208   0.03861   0.00000  Uiso   1.00
O171   O     0.79663   0.93992   0.13780   0.00000  Uiso   1.00
C172   C     0.62120   0.87888   0.18773   0.00000  Uiso   1.00
O173   O     1.04582   0.91733   0.99370   0.00000  Uiso   1.00
O174   O     0.90321   0.78830   0.06529   0.00000  Uiso   1.00
O175   O     0.94793   0.97091   0.07729   0.00000  Uiso   1.00
O176   O     0.73689   0.59553   0.43196   0.00000  Uiso   1.00
O177   O     0.89384   0.61873   0.39348   0.00000  Uiso   1.00
O178   O     0.86039   0.69677   0.50831   0.00000  Uiso   1.00
O179   O     0.97090   0.88599   0.26837   0.00000  Uiso   1.00
C180   C     0.68625   0.75878   0.10003   0.00000  Uiso   1.00
C181   C     0.79237   0.85397   0.27617   0.00000  Uiso   1.00
O182   O     0.85721   0.76785   0.37670   0.00000  Uiso   1.00
O183   O     0.89294   0.95810   0.36175   0.00000  Uiso   1.00
C184   C     0.74974   0.88563   0.88038   0.00000  Uiso   1.00
O185   O     0.87972   0.88808   0.96627   0.00000  Uiso   1.00
C186   C     0.91908   0.87355   0.82338   0.00000  Uiso   1.00
C187   C     0.93228   1.05163   0.88176   0.00000  Uiso   1.00
O188   O     0.75905   0.75753   0.58864   0.00000  Uiso   1.00
C189   C     0.59983   0.79285   0.60396   0.00000  Uiso   1.00
C190   C     0.64891   0.69052   0.72005   0.00000  Uiso   1.00
C191   C     0.76840   0.89998   0.67053   0.00000  Uiso   1.00
H192   H     0.22213   0.21888   0.92154   0.00000  Uiso   1.00
H193   H     0.14697   0.08716   0.94875   0.00000  Uiso   1.00
H194   H     0.23670   0.12346   0.88651   0.00000  Uiso   1.00
H195   H     0.32138   0.02417   0.93445   0.00000  Uiso   1.00
H196   H     0.40146   0.07348   0.99813   0.00000  Uiso   1.00
H197   H     0.41252   0.13871   0.92411   0.00000  Uiso   1.00
H198   H     0.02656   0.08405   0.60310   0.00000  Uiso   1.00
H199   H     0.11441   0.19392   0.55469   0.00000  Uiso   1.00
H200   H     0.07673   0.08744   0.51665   0.00000  Uiso   1.00
H201   H     0.91923   0.25305   0.56188   0.00000  Uiso   1.00
H202   H     0.88070   0.13938   0.61179   0.00000  Uiso   1.00
H203   H     0.81958   0.14806   0.54092   0.00000  Uiso   1.00
H204   H     0.15179   0.05118   0.41481   0.00000  Uiso   1.00
H205   H     0.08916  -0.01427   0.35066   0.00000  Uiso   1.00
H206   H     0.04185   0.04254   0.41515   0.00000  Uiso   1.00
H207   H     0.07836  -0.04502   0.71487   0.00000  Uiso   1.00
H208   H     0.19404   0.04603   0.69032   0.00000  Uiso   1.00
H209   H     0.12735   0.06498   0.76083   0.00000  Uiso   1.00
H210   H     0.32776   0.02081   0.72553   0.00000  Uiso   1.00
H211   H     0.33833  -0.03184   0.81126   0.00000  Uiso   1.00
H212   H     0.32313   0.07217   0.81154   0.00000  Uiso   1.00
H213   H     0.07763   0.78518   0.75749   0.00000  Uiso   1.00
H214   H     0.16727   0.78419   0.80085   0.00000  Uiso   1.00
H215   H     0.18310   0.83536   0.71329   0.00000  Uiso   1.00
H216   H     0.42108   0.28893  -0.05263   0.00000  Uiso   1.00
H217   H     0.40330   0.27780   0.04152   0.00000  Uiso   1.00
H218   H     0.32947   0.31036  -0.01152   0.00000  Uiso   1.00
H219   H     0.10597   0.18886   0.02457   0.00000  Uiso   1.00
H220   H     0.18829   0.29865  -0.00862   0.00000  Uiso   1.00
H221   H     0.06888   0.27999  -0.00485   0.00000  Uiso   1.00
H222   H     0.27435   0.28832   0.09907   0.00000  Uiso   1.00
H223   H     0.17422   0.18937   0.13530   0.00000  Uiso   1.00
H224   H     0.22196   0.27758   0.18751   0.00000  Uiso   1.00
H225   H     0.32202   0.57781   0.96634   0.00000  Uiso   1.00
H226   H     0.30158   0.46392   1.00380   0.00000  Uiso   1.00
H227   H     0.36520   0.56672   1.04431   0.00000  Uiso   1.00
H228   H     0.87356   0.48027   0.59936   0.00000  Uiso   1.00
H229   H     0.83939   0.48849   0.51384   0.00000  Uiso   1.00
H230   H     0.91544   0.58937   0.54585   0.00000  Uiso   1.00
H231   H     0.22397   0.40539   0.24537   0.00000  Uiso   1.00
H232   H     0.29124   0.49726   0.29518   0.00000  Uiso   1.00
H233   H     0.26023   0.53777   0.21974   0.00000  Uiso   1.00
H234   H    -0.05513   0.35252   0.97518   0.00000  Uiso   1.00
H235   H    -0.11296   0.32244   0.90108   0.00000  Uiso   1.00
H236   H    -0.16999   0.32228   0.98221   0.00000  Uiso   1.00
H237   H     0.07314   0.42840   1.00931   0.00000  Uiso   1.00
H238   H     0.15743   0.52882   0.95041   0.00000  Uiso   1.00
H239   H     0.09202   0.55587   1.01167   0.00000  Uiso   1.00
H240   H     0.02537   0.57151   0.82102   0.00000  Uiso   1.00
H241   H     0.05801   0.48202   0.85547   0.00000  Uiso   1.00
H242   H     0.07788   0.59533   0.89595   0.00000  Uiso   1.00
H243   H     0.08116   0.31501   0.72246   0.00000  Uiso   1.00
H244   H     0.07062   0.26072   0.63836   0.00000  Uiso   1.00
H245   H    -0.02178   0.27561   0.68666   0.00000  Uiso   1.00
H246   H     0.10880   0.48026   0.73555   0.00000  Uiso   1.00
H247   H     0.10261   0.57649   0.68298   0.00000  Uiso   1.00
H248   H     0.19709   0.55929   0.67588   0.00000  Uiso   1.00
H249   H     0.15193   0.88696   0.30343   0.00000  Uiso   1.00
H250   H     0.13973   0.78838   0.25047   0.00000  Uiso   1.00
H251   H     0.05528   0.77469   0.32028   0.00000  Uiso   1.00
H252   H     0.19688   0.63370   0.32947   0.00000  Uiso   1.00
H253   H     0.17270   0.55650   0.40965   0.00000  Uiso   1.00
H254   H     0.08386   0.57487   0.38031   0.00000  Uiso   1.00
H255   H     0.23853   0.63651   0.54467   0.00000  Uiso   1.00
H256   H     0.22999   0.70820   0.61089   0.00000  Uiso   1.00
H257   H     0.28780   0.76486   0.52993   0.00000  Uiso   1.00
H258   H     0.07544   0.79107   0.44588   0.00000  Uiso   1.00
H259   H     0.14389   0.74720   0.40235   0.00000  Uiso   1.00
H260   H     0.19027   0.84969   0.45613   0.00000  Uiso   1.00
H261   H     0.02754   0.75678   0.57765   0.00000  Uiso   1.00
H262   H     0.12364   0.78867   0.61406   0.00000  Uiso   1.00
H263   H     0.03867   0.66146   0.63353   0.00000  Uiso   1.00
H264   H    -0.06396   0.76615   0.67012   0.00000  Uiso   1.00
H265   H    -0.11284   0.64327   0.64798   0.00000  Uiso   1.00
H266   H    -0.17556   0.69613   0.69925   0.00000  Uiso   1.00
H267   H    -0.06928   0.92097   0.59937   0.00000  Uiso   1.00
H268   H    -0.07174   0.91279   0.50597   0.00000  Uiso   1.00
H269   H     0.00110   0.87555   0.54583   0.00000  Uiso   1.00
H270   H     1.07012   0.73368   0.89433   0.00000  Uiso   1.00
H271   H     0.96663   0.72623   0.93894   0.00000  Uiso   1.00
H272   H     1.05734   0.70271   0.98267   0.00000  Uiso   1.00
H273   H     0.61162   0.02872   0.48647   0.00000  Uiso   1.00
H274   H     0.62829   0.13980   0.44408   0.00000  Uiso   1.00
H275   H     0.68333   0.07033   0.40880   0.00000  Uiso   1.00
H276   H     0.37180   0.88354   0.43329   0.00000  Uiso   1.00
H277   H     0.42532   0.93463   0.50790   0.00000  Uiso   1.00
H278   H     0.45580   0.85457   0.46720   0.00000  Uiso   1.00
H279   H     0.57836   0.89305   0.34002   0.00000  Uiso   1.00
H280   H     0.61744   1.01784   0.29488   0.00000  Uiso   1.00
H281   H     0.50980   0.92568   0.29133   0.00000  Uiso   1.00
H282   H     0.34874   0.03333   0.58993   0.00000  Uiso   1.00
H283   H     0.37431   0.07361   0.50564   0.00000  Uiso   1.00
H284   H     0.33421   0.13927   0.56196   0.00000  Uiso   1.00
H285   H     0.51134   0.03225   0.57711   0.00000  Uiso   1.00
H286   H     0.55085   0.09450   0.64609   0.00000  Uiso   1.00
H287   H     0.62360   0.14050   0.57139   0.00000  Uiso   1.00
H288   H     0.53600   0.29801   0.64802   0.00000  Uiso   1.00
H289   H     0.47492   0.18265   0.69857   0.00000  Uiso   1.00
H290   H     0.41943   0.24603   0.65079   0.00000  Uiso   1.00
H291   H     0.51115   0.25995   0.11656   0.00000  Uiso   1.00
H292   H     0.55803   0.30656   0.19172   0.00000  Uiso   1.00
H293   H     0.59205   0.37982   0.10846   0.00000  Uiso   1.00
H294   H     0.35370   0.43900   0.12471   0.00000  Uiso   1.00
H295   H     0.41842   0.41932   0.05573   0.00000  Uiso   1.00
H296   H     0.47442   0.51086   0.11157   0.00000  Uiso   1.00
H297   H     0.38093   0.32028   0.40267   0.00000  Uiso   1.00
H298   H     0.40644   0.35108   0.49158   0.00000  Uiso   1.00
H299   H     0.36801   0.23037   0.45545   0.00000  Uiso   1.00
H300   H     0.28562   0.23802   0.71756   0.00000  Uiso   1.00
H301   H     0.25144   0.20320   0.63444   0.00000  Uiso   1.00
H302   H     0.18395   0.23778   0.69975   0.00000  Uiso   1.00
H303   H     0.22554   0.43390   0.72271   0.00000  Uiso   1.00
H304   H     0.31306   0.53238   0.66725   0.00000  Uiso   1.00
H305   H     0.33611   0.47071   0.74378   0.00000  Uiso   1.00
H306   H     0.45248   0.76416   0.26781   0.00000  Uiso   1.00
H307   H     0.45219   0.75707   0.17387   0.00000  Uiso   1.00
H308   H     0.36335   0.66766   0.23925   0.00000  Uiso   1.00
H309   H     0.37542   0.97012   0.16903   0.00000  Uiso   1.00
H310   H     0.41639   0.91148   0.11061   0.00000  Uiso   1.00
H311   H     0.47449   0.96471   0.17976   0.00000  Uiso   1.00
H312   H     0.37816   0.86627   0.32272   0.00000  Uiso   1.00
H313   H     0.26675   0.79069   0.33275   0.00000  Uiso   1.00
H314   H     0.30997   0.91061   0.28830   0.00000  Uiso   1.00
H315   H     0.44979   0.48838   0.40783   0.00000  Uiso   1.00
H316   H     0.52500   0.60908   0.38635   0.00000  Uiso   1.00
H317   H     0.42474   0.54648   0.33679   0.00000  Uiso   1.00
H318   H     0.33040   0.66155   0.35232   0.00000  Uiso   1.00
H319   H     0.43701   0.75493   0.37475   0.00000  Uiso   1.00
H320   H     0.32488   0.71817   0.42522   0.00000  Uiso   1.00
H321   H     0.49075   0.69889   0.50603   0.00000  Uiso   1.00
H322   H     0.41543   0.58669   0.55012   0.00000  Uiso   1.00
H323   H     0.38476   0.68504   0.55280   0.00000  Uiso   1.00
H324   H     0.27406   0.69934   0.92240   0.00000  Uiso   1.00
H325   H     0.35700   0.77661   0.85092   0.00000  Uiso   1.00
H326   H     0.27058   0.80885   0.89300   0.00000  Uiso   1.00
H327   H     0.37830   0.71399   1.06170   0.00000  Uiso   1.00
H328   H     0.48173   0.81356   1.05537   0.00000  Uiso   1.00
H329   H     0.45834   0.73168   0.98809   0.00000  Uiso   1.00
H330   H     0.50438   1.00310   0.95955   0.00000  Uiso   1.00
H331   H     0.45855   0.97651   0.87786   0.00000  Uiso   1.00
H332   H     0.52709   0.91570   0.90752   0.00000  Uiso   1.00
H333   H     0.83033   0.12991   0.07592   0.00000  Uiso   1.00
H334   H     0.88580   0.09505   0.00735   0.00000  Uiso   1.00
H335   H     0.94426   0.18886   0.05777   0.00000  Uiso   1.00
H336   H     0.70947   0.08333   0.16691   0.00000  Uiso   1.00
H337   H     0.71366   0.17870   0.11438   0.00000  Uiso   1.00
H338   H     0.60599   0.10993   0.15986   0.00000  Uiso   1.00
H339   H     0.68523   0.88550   0.41736   0.00000  Uiso   1.00
H340   H     0.71147   0.91549   0.49712   0.00000  Uiso   1.00
H341   H     0.74795   0.83988   0.45738   0.00000  Uiso   1.00
H342   H     0.54419   0.09234   0.78521   0.00000  Uiso   1.00
H343   H     0.56278   0.22237   0.77474   0.00000  Uiso   1.00
H344   H     0.54566   0.15459   0.85871   0.00000  Uiso   1.00
H345   H     0.82141   0.20046   0.72985   0.00000  Uiso   1.00
H346   H     0.74001   0.22793   0.68819   0.00000  Uiso   1.00
H347   H     0.71595   0.10496   0.71285   0.00000  Uiso   1.00
H348   H     0.67327   0.05074   0.86584   0.00000  Uiso   1.00
H349   H     0.68832   0.13594   0.92725   0.00000  Uiso   1.00
H350   H     0.77863   0.13104   0.87155   0.00000  Uiso   1.00
H351   H     0.87860   0.28675   0.08208   0.00000  Uiso   1.00
H352   H     0.89749   0.26440   0.17212   0.00000  Uiso   1.00
H353   H     0.98427   0.36401   0.11260   0.00000  Uiso   1.00
H354   H     0.49617   0.49250   0.24475   0.00000  Uiso   1.00
H355   H     0.47717   0.37832   0.28938   0.00000  Uiso   1.00
H356   H     0.38662   0.40711   0.26805   0.00000  Uiso   1.00
H357   H     0.64303   0.51572   0.16350   0.00000  Uiso   1.00
H358   H     0.64246   0.43456   0.23362   0.00000  Uiso   1.00
H359   H     0.71958   0.45527   0.16369   0.00000  Uiso   1.00
H360   H     0.63106   0.54865   0.32613   0.00000  Uiso   1.00
H361   H     0.64310   0.65076   0.26553   0.00000  Uiso   1.00
H362   H     0.71637   0.66481   0.33121   0.00000  Uiso   1.00
H363   H     0.72479   0.32192   0.45749   0.00000  Uiso   1.00
H364   H     0.79767   0.33033   0.52250   0.00000  Uiso   1.00
H365   H     0.75853   0.22316   0.48136   0.00000  Uiso   1.00
H366   H     0.70067   0.40760   0.55214   0.00000  Uiso   1.00
H367   H     0.61460   0.43356   0.59326   0.00000  Uiso   1.00
H368   H     0.73506   0.51938   0.57283   0.00000  Uiso   1.00
H369   H     0.50710   0.50936   0.50351   0.00000  Uiso   1.00
H370   H     0.59558   0.63493   0.48117   0.00000  Uiso   1.00
H371   H     0.58880   0.57706   0.56251   0.00000  Uiso   1.00
H372   H     0.44890   0.40719   0.68614   0.00000  Uiso   1.00
H373   H     0.47109   0.50981   0.62755   0.00000  Uiso   1.00
H374   H     0.45866   0.38882   0.59525   0.00000  Uiso   1.00
H375   H     0.94337   0.40239   0.76518   0.00000  Uiso   1.00
H376   H     0.93694   0.49982   0.71206   0.00000  Uiso   1.00
H377   H     0.87049   0.37401   0.69375   0.00000  Uiso   1.00
H378   H     0.70414   0.44107   0.71370   0.00000  Uiso   1.00
H379   H     0.76402   0.54743   0.75420   0.00000  Uiso   1.00
H380   H     0.67460   0.46965   0.80544   0.00000  Uiso   1.00
H381   H     0.60393   0.39775   0.90392   0.00000  Uiso   1.00
H382   H     0.61338   0.36894   0.98715   0.00000  Uiso   1.00
H383   H     0.69846   0.38158   0.92930   0.00000  Uiso   1.00
H384   H     0.73085   0.63750   0.85698   0.00000  Uiso   1.00
H385   H     0.83729   0.64675   0.88183   0.00000  Uiso   1.00
H386   H     0.79080   0.70872   0.92136   0.00000  Uiso   1.00
H387   H     0.60993   0.56445   1.05888   0.00000  Uiso   1.00
H388   H     0.54528   0.51172   0.98563   0.00000  Uiso   1.00
H389   H     0.62141   0.62675   0.97276   0.00000  Uiso   1.00
H390   H     0.68768   1.01245   0.04341   0.00000  Uiso   1.00
H391   H     0.61729   0.90324   0.02230   0.00000  Uiso   1.00
H392   H     0.74169   0.95012  -0.00328   0.00000  Uiso   1.00
H393   H     0.58972   0.81092   0.21432   0.00000  Uiso   1.00
H394   H     0.56744   0.90231   0.17348   0.00000  Uiso   1.00
H395   H     0.66798   0.92278   0.22201   0.00000  Uiso   1.00
H396   H     0.61983   0.72454   0.07681   0.00000  Uiso   1.00
H397   H     0.68784   0.72466   0.15268   0.00000  Uiso   1.00
H398   H     0.74127   0.76070   0.06248   0.00000  Uiso   1.00
H399   H     0.73714   0.81310   0.31039   0.00000  Uiso   1.00
H400   H     0.78377   0.81115   0.23166   0.00000  Uiso   1.00
H401   H     0.79567   0.92486   0.25995   0.00000  Uiso   1.00
H402   H     0.73292   0.94329   0.87867   0.00000  Uiso   1.00
H403   H     0.70527   0.82552   0.91917   0.00000  Uiso   1.00
H404   H     0.74127   0.85706   0.82737   0.00000  Uiso   1.00
H405   H     0.92904   0.91133   0.77197   0.00000  Uiso   1.00
H406   H     0.87446   0.79323   0.82170   0.00000  Uiso   1.00
H407   H     0.98229   0.88101   0.84270   0.00000  Uiso   1.00
H408   H     1.00010   1.07697   0.90311   0.00000  Uiso   1.00
H409   H     0.89678   1.09544   0.90317   0.00000  Uiso   1.00
H410   H     0.94277   1.08014   0.82669   0.00000  Uiso   1.00
H411   H     0.53599   0.73896   0.63333   0.00000  Uiso   1.00
H412   H     0.60236   0.77391   0.55086   0.00000  Uiso   1.00
H413   H     0.60077   0.86504   0.59879   0.00000  Uiso   1.00
H414   H     0.59328   0.70018   0.74436   0.00000  Uiso   1.00
H415   H     0.70363   0.71617   0.75625   0.00000  Uiso   1.00
H416   H     0.63398   0.62162   0.70450   0.00000  Uiso   1.00
H417   H     0.73037   0.94580   0.68446   0.00000  Uiso   1.00
H418   H     0.81095   0.94984   0.62827   0.00000  Uiso   1.00
H419   H     0.81184   0.89375   0.70907   0.00000  Uiso   1.00
loop_
_geom_bond_atom_site_label_1
_geom_bond_atom_site_label_2
_geom_bond_distance
_geom_bond_site_symmetry_2
_ccdc_geom_bond_type
Si1    O52     1.620   .     S
Si1    O96     1.571   .     S
Si1    O83     1.623   1_545 S
Si1    O85     1.653   1_545 S
Si2    O57     1.624   .     S
Si2    O62     1.600   .     S
Si2    O130    1.599   1_455 S
Si2    O135    1.632   1_455 S
Si3    O52     1.623   .     S
Si3    C63     1.879   .     S
Si3    C53     1.855   1_554 S
Si3    C54     1.862   1_554 S
Si4    C55     1.884   .     S
Si4    O68     1.576   .     S
Si4    C56     1.898   1_455 S
Si4    O133    1.644   1_455 S
Si5    O57     1.621   .     S
Si5    C58     1.855   .     S
Si5    O69     1.602   .     S
Si5    O97     1.660   .     S
Si6    C59     1.873   .     S
Si6    C60     1.877   .     S
Si6    C61     1.841   1_545 S
Si6    O94     1.620   1_545 S
Si7    O62     1.567   .     S
Si7    C64     1.888   .     S
Si7    C65     1.814   .     S
Si7    O66     1.598   .     S
Si8    O71     1.607   .     S
Si8    O80     1.540   .     S
Si8    O143    1.647   1_455 S
Si8    O156    1.582   1_455 S
Si9    O66     1.601   .     S
Si9    O81     1.584   .     S
Si9    C67     1.852   1_554 S
Si9    C75     1.825   1_554 S
Si10   O68     1.553   .     S
Si10   O69     1.599   .     S
Si10   O72     1.608   .     S
Si10   O112    1.585   .     S
Si11   O77     1.550   .     S
Si11   O86     1.606   .     S
Si11   C70     1.839   1_455 S
Si11   O151    1.604   1_455 S
Si12   O71     1.585   .     S
Si12   O72     1.585   .     S
Si12   C73     1.855   .     S
Si12   C87     1.889   .     S
Si13   C74     1.839   .     S
Si13   C76     1.912   .     S
Si13   O147    1.552   1_455 S
Si13   O162    1.619   1_455 S
Si14   O77     1.581   .     S
Si14   C78     1.858   .     S
Si14   C79     1.923   .     S
Si14   O113    1.602   .     S
Si15   O80     1.662   .     S
Si15   O81     1.631   .     S
Si15   O84     1.591   .     S
Si15   O117    1.522   .     S
Si16   C82     1.877   .     S
Si16   O83     1.618   .     S
Si16   O169    1.617   1_455 S
Si16   O179    1.654   1_455 S
Si17   O84     1.623   .     S
Si17   O85     1.599   .     S
Si17   O93     1.576   1_554 S
Si17   O128    1.565   1_554 S
Si18   O86     1.616   .     S
Si18   C88     1.777   .     S
Si18   C89     1.846   .     S
Si18   C90     1.837   .     S
Si19   C91     1.823   .     S
Si19   C92     1.866   .     S
Si19   O178    1.625   1_455 S
Si19   O188    1.576   1_455 S
Si20   O93     1.588   .     S
Si20   O94     1.651   .     S
Si20   C95     1.846   1_455 S
Si20   O173    1.577   1_455 S
Si21   O96     1.617   .     S
Si21   O97     1.672   .     S
Si21   O104    1.697   .     S
Si21   O106    1.602   .     S
Si22   C98     1.827   .     S
Si22   O105    1.614   .     S
Si22   C99     1.896   1_545 S
Si22   C100    1.876   1_545 S
Si23   C101    1.793   .     S
Si23   C102    1.846   .     S
Si23   C103    1.849   .     S
Si23   O109    1.622   .     S
Si24   O104    1.702   .     S
Si24   O105    1.630   .     S
Si24   O110    1.629   .     S
Si24   O132    1.672   .     S
Si25   O106    1.542   .     S
Si25   C107    1.832   .     S
Si25   C108    1.919   .     S
Si25   C144    1.845   .     S
Si26   O109    1.628   .     S
Si26   O110    1.600   .     S
Si26   C111    1.911   .     S
Si26   O152    1.585   .     S
Si27   O112    1.578   .     S
Si27   O113    1.592   .     S
Si27   O114    1.607   .     S
Si27   O121    1.621   .     S
Si28   O114    1.561   .     S
Si28   C115    1.905   .     S
Si28   C116    1.878   .     S
Si28   C155    1.888   .     S
Si29   O117    1.648   .     S
Si29   C118    1.839   .     S
Si29   C119    1.907   .     S
Si29   C120    1.789   .     S
Si30   O121    1.570   .     S
Si30   C122    1.876   .     S
Si30   C123    1.821   .     S
Si30   C124    1.796   .     S
Si31   C125    1.900   .     S
Si31   C126    1.906   .     S
Si31   C127    1.873   .     S
Si31   O128    1.626   .     S
Si32   C129    1.882   .     S
Si32   O130    1.584   .     S
Si32   O171    1.581   1_545 S
Si32   O175    1.595   1_545 S
Si33   C131    1.900   .     S
Si33   O132    1.652   .     S
Si33   O136    1.677   .     S
Si33   O141    1.597   .     S
Si34   O133    1.545   .     S
Si34   O137    1.633   .     S
Si34   C134    1.833   1_545 S
Si34   O183    1.659   1_545 S
Si35   O135    1.660   .     S
Si35   O136    1.652   .     S
Si35   O137    1.572   .     S
Si35   O150    1.670   .     S
Si36   C138    1.841   .     S
Si36   C139    1.887   .     S
Si36   C140    1.786   .     S
Si36   O159    1.621   .     S
Si37   O141    1.609   .     S
Si37   C142    1.825   .     S
Si37   O143    1.580   .     S
Si37   O148    1.589   .     S
Si38   C145    1.881   .     S
Si38   C146    1.865   .     S
Si38   O157    1.608   .     S
Si38   O167    1.625   .     S
Si39   O148    1.544   .     S
Si39   O168    1.663   .     S
Si39   O147    1.588   1_554 S
Si39   O164    1.595   1_554 S
Si40   C149    1.848   .     S
Si40   O150    1.624   .     S
Si40   O151    1.631   .     S
Si40   O158    1.580   .     S
Si41   O152    1.633   .     S
Si41   C153    1.880   .     S
Si41   C154    1.887   .     S
Si41   O176    1.606   .     S
Si42   O156    1.514   .     S
Si42   O157    1.614   .     S
Si42   O158    1.627   .     S
Si42   O177    1.576   .     S
Si43   O159    1.511   .     S
Si43   C160    1.875   .     S
Si43   C161    1.857   .     S
Si43   O162    1.617   .     S
Si44   C163    1.905   .     S
Si44   O164    1.556   .     S
Si44   C165    1.950   .     S
Si44   C166    1.861   .     S
Si45   O167    1.623   .     S
Si45   O168    1.586   .     S
Si45   O169    1.651   .     S
Si45   O174    1.632   .     S
Si46   C170    1.800   .     S
Si46   O171    1.595   .     S
Si46   C172    1.854   .     S
Si46   C180    1.832   .     S
Si47   O174    1.604   .     S
Si47   O175    1.600   .     S
Si47   O173    1.608   1_554 S
Si47   O185    1.630   1_554 S
Si48   O176    1.614   .     S
Si48   O177    1.619   .     S
Si48   O178    1.642   .     S
Si48   O182    1.641   .     S
Si49   O179    1.625   .     S
Si49   C181    1.827   .     S
Si49   O182    1.639   .     S
Si49   O183    1.620   .     S
Si50   C184    1.871   .     S
Si50   O185    1.582   .     S
Si50   C186    1.859   .     S
Si50   C187    1.799   .     S
Si51   O188    1.603   .     S
Si51   C189    1.879   .     S
Si51   C190    1.913   .     S
Si51   C191    1.826   .     S
C53    H192    1.132   .     S
C53    H193    1.104   .     S
C53    H194    1.084   .     S
C53    Si3     1.855   1_556 S
C54    H195    1.078   .     S
C54    H196    1.089   .     S
C54    H197    1.092   .     S
C54    Si3     1.862   1_556 S
C55    H198    1.117   .     S
C55    H199    1.141   .     S
C55    H200    1.037   .     S
C56    H201    1.120   .     S
C56    H202    1.075   .     S
C56    H203    1.109   .     S
C56    Si4     1.898   1_655 S
C58    H204    1.108   .     S
C58    H205    1.071   .     S
C58    H206    1.127   .     S
C59    H207    1.111   .     S
C59    H208    1.099   .     S
C59    H209    1.134   .     S
C60    H210    1.156   .     S
C60    H211    1.110   .     S
C60    H212    1.098   .     S
C61    H213    1.119   .     S
C61    H214    1.080   .     S
C61    H215    1.080   .     S
C61    Si6     1.841   1_565 S
C63    H216    1.166   .     S
C63    H217    1.023   .     S
C63    H218    1.160   .     S
C64    H219    1.053   .     S
C64    H220    1.089   .     S
C64    H221    1.144   .     S
C65    H222    1.117   .     S
C65    H223    1.073   .     S
C65    H224    1.040   .     S
C67    H225    1.130   .     S
C67    H226    1.072   .     S
C67    H227    1.088   .     S
C67    Si9     1.852   1_556 S
C70    H228    1.091   .     S
C70    H229    1.134   .     S
C70    H230    1.093   .     S
C70    Si11    1.839   1_655 S
C73    H231    1.159   .     S
C73    H232    1.050   .     S
C73    H233    1.110   .     S
C74    H234    1.035   .     S
C74    H235    1.089   .     S
C74    H236    1.133   .     S
C75    H237    1.149   .     S
C75    H238    1.086   .     S
C75    H239    1.086   .     S
C75    Si9     1.825   1_556 S
C76    H240    1.092   .     S
C76    H241    1.168   .     S
C76    H242    1.098   .     S
C78    H243    1.101   .     S
C78    H244    1.128   .     S
C78    H245    1.114   .     S
C79    H246    1.060   .     S
C79    H247    1.088   .     S
C79    H248    1.101   .     S
C82    H249    1.115   .     S
C82    H250    1.069   .     S
C82    H251    1.097   .     S
O83    Si1     1.623   1_565 S
O85    Si1     1.653   1_565 S
C87    H252    1.070   .     S
C87    H253    1.085   .     S
C87    H254    1.147   .     S
C88    H255    1.143   .     S
C88    H256    1.112   .     S
C88    H257    1.070   .     S
C89    H258    1.082   .     S
C89    H259    1.101   .     S
C89    H260    1.117   .     S
C90    H261    1.136   .     S
C90    H262    1.081   .     S
C90    H263    1.138   .     S
C91    H264    1.153   .     S
C91    H265    1.099   .     S
C91    H266    1.100   .     S
C92    H267    1.122   .     S
C92    H268    1.102   .     S
C92    H269    1.103   .     S
O93    Si17    1.576   1_556 S
O94    Si6     1.620   1_565 S
C95    H270    1.074   .     S
C95    H271    1.148   .     S
C95    H272    1.105   .     S
C95    Si20    1.846   1_655 S
C98    H273    1.053   .     S
C98    H274    1.101   .     S
C98    H275    1.063   .     S
C99    H276    1.105   .     S
C99    H277    1.088   .     S
C99    H278    1.038   .     S
C99    Si22    1.896   1_565 S
C100   H279    1.120   .     S
C100   H280    1.098   .     S
C100   H281    1.078   .     S
C100   Si22    1.876   1_565 S
C101   H282    1.103   .     S
C101   H283    1.036   .     S
C101   H284    1.113   .     S
C102   H285    1.043   .     S
C102   H286    1.113   .     S
C102   H287    1.130   .     S
C103   H288    1.068   .     S
C103   H289    1.183   .     S
C103   H290    1.100   .     S
C107   H291    1.130   .     S
C107   H292    1.097   .     S
C107   H293    1.117   .     S
C108   H294    1.135   .     S
C108   H295    1.098   .     S
C108   H296    1.110   .     S
C111   H297    1.128   .     S
C111   H298    1.097   .     S
C111   H299    1.080   .     S
C115   H300    1.058   .     S
C115   H301    1.108   .     S
C115   H302    1.134   .     S
C116   H303    1.104   .     S
C116   H304    1.114   .     S
C116   H305    1.149   .     S
C118   H306    1.113   .     S
C118   H307    1.129   .     S
C118   H308    1.060   .     S
C119   H309    1.073   .     S
C119   H310    1.117   .     S
C119   H311    1.088   .     S
C120   H312    1.060   .     S
C120   H313    1.080   .     S
C120   H314    1.089   .     S
C122   H315    1.129   .     S
C122   H316    1.147   .     S
C122   H317    1.094   .     S
C123   H318    1.066   .     S
C123   H319    1.152   .     S
C123   H320    1.088   .     S
C124   H321    1.063   .     S
C124   H322    1.123   .     S
C124   H323    1.108   .     S
C125   H324    1.111   .     S
C125   H325    1.126   .     S
C125   H326    1.123   .     S
C126   H327    1.120   .     S
C126   H328    1.077   .     S
C126   H329    1.087   .     S
C127   H330    1.113   .     S
C127   H331    1.103   .     S
C127   H332    1.095   .     S
O128   Si17    1.565   1_556 S
C129   H333    1.069   .     S
C129   H334    1.089   .     S
C129   H335    1.156   .     S
O130   Si2     1.599   1_655 S
C131   H336    1.140   .     S
C131   H337    1.066   .     S
C131   H338    1.107   .     S
O133   Si4     1.644   1_655 S
C134   H339    1.040   .     S
C134   H340    1.065   .     S
C134   H341    1.102   .     S
C134   Si34    1.833   1_565 S
O135   Si2     1.632   1_655 S
C138   H342    1.148   .     S
C138   H343    1.166   .     S
C138   H344    1.072   .     S
C139   H345    1.126   .     S
C139   H346    1.062   .     S
C139   H347    1.145   .     S
C140   H348    1.108   .     S
C140   H349    1.124   .     S
C140   H350    1.074   .     S
C142   H351    1.094   .     S
C142   H352    1.111   .     S
C142   H353    1.177   .     S
O143   Si8     1.647   1_655 S
C144   H354    1.103   .     S
C144   H355    1.115   .     S
C144   H356    1.104   .     S
C145   H357    1.147   .     S
C145   H358    1.094   .     S
C145   H359    1.086   .     S
C146   H360    1.089   .     S
C146   H361    1.146   .     S
C146   H362    1.079   .     S
O147   Si13    1.552   1_655 S
O147   Si39    1.588   1_556 S
C149   H363    1.145   .     S
C149   H364    1.088   .     S
C149   H365    1.128   .     S
O151   Si11    1.604   1_655 S
C153   H366    1.057   .     S
C153   H367    1.168   .     S
C153   H368    1.064   .     S
C154   H369    1.132   .     S
C154   H370    1.081   .     S
C154   H371    1.071   .     S
C155   H372    1.130   .     S
C155   H373    1.136   .     S
C155   H374    1.104   .     S
O156   Si8     1.582   1_655 S
C160   H375    1.144   .     S
C160   H376    1.138   .     S
C160   H377    1.096   .     S
C161   H378    1.133   .     S
C161   H379    1.083   .     S
C161   H380    1.151   .     S
O162   Si13    1.619   1_655 S
C163   H381    1.118   .     S
C163   H382    1.019   .     S
C163   H383    1.090   .     S
O164   Si39    1.595   1_556 S
C165   H384    1.092   .     S
C165   H385    1.067   .     S
C165   H386    1.123   .     S
C166   H387    1.087   .     S
C166   H388    1.130   .     S
C166   H389    1.072   .     S
O169   Si16    1.617   1_655 S
C170   H390    1.100   .     S
C170   H391    1.141   .     S
C170   H392    1.131   .     S
O171   Si32    1.581   1_565 S
C172   H393    1.044   .     S
C172   H394    1.141   .     S
C172   H395    1.088   .     S
O173   Si20    1.577   1_655 S
O173   Si47    1.608   1_556 S
O175   Si32    1.595   1_565 S
O178   Si19    1.625   1_655 S
O179   Si16    1.654   1_655 S
C180   H396    1.139   .     S
C180   H397    1.139   .     S
C180   H398    1.120   .     S
C181   H399    1.032   .     S
C181   H400    1.102   .     S
C181   H401    1.105   .     S
O183   Si34    1.659   1_565 S
C184   H402    1.043   .     S
C184   H403    1.119   .     S
C184   H404    1.142   .     S
O185   Si47    1.630   1_556 S
C186   H405    1.101   .     S
C186   H406    1.151   .     S
C186   H407    1.100   .     S
C187   H408    1.140   .     S
C187   H409    1.149   .     S
C187   H410    1.115   .     S
O188   Si19    1.576   1_655 S
C189   H411    1.123   .     S
C189   H412    1.096   .     S
C189   H413    1.112   .     S
C190   H414    1.079   .     S
C190   H415    1.137   .     S
C190   H416    1.056   .     S
C191   H417    1.164   .     S
C191   H418    1.080   .     S
C191   H419    1.105   .     S
