data_333-7-11-18-15-30-12
_audit_creation_date              2025-03-07
_audit_creation_method            'Materials Studio'
_symmetry_space_group_name_H-M    'P1'
_symmetry_Int_Tables_number       1
_symmetry_cell_setting            triclinic
loop_
_symmetry_equiv_pos_as_xyz
  x,y,z
_cell_length_a                    17.7253
_cell_length_b                    16.5485
_cell_length_c                    19.5747
_cell_angle_alpha                 100.0180
_cell_angle_beta                  83.7629
_cell_angle_gamma                 113.0625
loop_
_atom_site_label
_atom_site_type_symbol
_atom_site_fract_x
_atom_site_fract_y
_atom_site_fract_z
_atom_site_U_iso_or_equiv
_atom_site_adp_type
_atom_site_occupancy
Si1    Si   -0.09681   0.13791   0.15855   0.00000  Uiso   1.00
Si2    Si    0.03146   0.10567  -0.08724   0.00000  Uiso   1.00
Si3    Si   -0.10994   0.17253   0.50129   0.00000  Uiso   1.00
Si4    Si    0.28163   0.26715   0.31493   0.00000  Uiso   1.00
Si5    Si   -0.07583   0.13817   0.81615   0.00000  Uiso   1.00
Si6    Si    0.01305   0.11902   0.55280   0.00000  Uiso   1.00
Si7    Si    0.02912   0.22924   0.04688   0.00000  Uiso   1.00
Si8    Si   -0.02234   0.46095   0.16162   0.00000  Uiso   1.00
Si9    Si    0.07315   0.40313  -0.01775   0.00000  Uiso   1.00
Si10   Si    0.14829   0.34191   0.32688   0.00000  Uiso   1.00
Si11   Si    0.11962   0.45556   0.23435   0.00000  Uiso   1.00
Si12   Si    0.04689   0.21807   0.69991   0.00000  Uiso   1.00
Si13   Si   -0.04827   0.43217   0.90055   0.00000  Uiso   1.00
Si14   Si    0.17222   0.39661   0.66302   0.00000  Uiso   1.00
Si15   Si    0.09267   0.58447   0.06837   0.00000  Uiso   1.00
Si16   Si    0.09980   0.71494  -0.02824   0.00000  Uiso   1.00
Si17   Si    0.13524   0.89898   0.67527   0.00000  Uiso   1.00
Si18   Si    0.14891   0.81207   0.28821   0.00000  Uiso   1.00
Si19   Si    0.38149   0.24551   0.17188   0.00000  Uiso   1.00
Si20   Si    0.50121   0.10430  -0.06522   0.00000  Uiso   1.00
Si21   Si    0.47729   0.11420   0.31089   0.00000  Uiso   1.00
Si22   Si    0.54543   0.27174   0.22702   0.00000  Uiso   1.00
Si23   Si    0.57996   0.06047   0.73682   0.00000  Uiso   1.00
Si24   Si    0.53272   0.21245   0.72010   0.00000  Uiso   1.00
Si25   Si    0.63283   0.62329   0.47405   0.00000  Uiso   1.00
Si26   Si    0.56432   0.36578   0.83447   0.00000  Uiso   1.00
Si27   Si    0.23825   0.42282   0.91608   0.00000  Uiso   1.00
Si28   Si    0.52427   0.50173   0.77397   0.00000  Uiso   1.00
Si29   Si    0.47812   0.69128   0.30118   0.00000  Uiso   1.00
Si30   Si    0.22487   0.73894   0.15807   0.00000  Uiso   1.00
Si31   Si    0.49291   0.67139   0.14320   0.00000  Uiso   1.00
Si32   Si    0.52582   0.72784   0.54242   0.00000  Uiso   1.00
Si33   Si    0.41595   1.12469   0.46565   0.00000  Uiso   1.00
Si34   Si    0.76397  -0.05152   0.13096   0.00000  Uiso   1.00
Si35   Si    0.68847   0.21847   0.16183   0.00000  Uiso   1.00
Si36   Si    0.81581   0.18015  -0.06037   0.00000  Uiso   1.00
Si37   Si    0.78725   0.08190   0.37213   0.00000  Uiso   1.00
Si38   Si    0.79310   0.20239   0.26961   0.00000  Uiso   1.00
Si39   Si    0.83178  -0.05068   0.74549   0.00000  Uiso   1.00
Si40   Si    0.67008   0.17937   0.86098   0.00000  Uiso   1.00
Si41   Si    0.83712   0.33320   0.06825   0.00000  Uiso   1.00
Si42   Si    0.83950   0.49239   0.00525   0.00000  Uiso   1.00
Si43   Si    0.79946   0.35564   0.38763   0.00000  Uiso   1.00
Si44   Si    0.80664   0.33510   0.80890   0.00000  Uiso   1.00
Si45   Si    0.67521   0.46522   0.95246   0.00000  Uiso   1.00
Si46   Si    0.82225   0.49066   0.73576   0.00000  Uiso   1.00
Si47   Si    0.83745   0.63824   0.12877   0.00000  Uiso   1.00
Si48   Si    0.85186   0.81435   0.08877   0.00000  Uiso   1.00
Si49   Si    1.16251   0.74039   0.58202   0.00000  Uiso   1.00
Si50   Si    0.85142   0.93183   0.35140   0.00000  Uiso   1.00
Si51   Si    0.95433   0.85476   0.71329   0.00000  Uiso   1.00
C52    C    -0.01376  -0.00943  -0.06773   0.00000  Uiso   1.00
C53    C     0.14361   0.14134   0.90394   0.00000  Uiso   1.00
C54    C     0.80664   0.12803   0.56858   0.00000  Uiso   1.00
C55    C    -0.02576   0.10252   0.19804   0.00000  Uiso   1.00
C56    C     0.22097   0.14675   0.32352   0.00000  Uiso   1.00
C57    C     0.34030   0.33202   0.39509   0.00000  Uiso   1.00
O58    O    -0.00757   0.11101   0.84746   0.00000  Uiso   1.00
O59    O    -0.04502   0.12709   0.50173   0.00000  Uiso   1.00
C60    C    -0.01389  -0.00344   0.55620   0.00000  Uiso   1.00
C61    C     0.12018   0.16267   0.51598   0.00000  Uiso   1.00
O62    O    -0.04525   0.19930   0.10108   0.00000  Uiso   1.00
O63    O     0.00929   0.16977  -0.02335   0.00000  Uiso   1.00
C64    C     0.12086   0.22147   0.07853   0.00000  Uiso   1.00
C65    C     0.91062   0.47855   0.23978   0.00000  Uiso   1.00
O66    O     0.05340   0.33172   0.03688   0.00000  Uiso   1.00
C67    C    -0.05943   0.29352   0.52385   0.00000  Uiso   1.00
C68    C     0.06110   0.24467   0.35753   0.00000  Uiso   1.00
O69    O     0.21954   0.30924   0.29589   0.00000  Uiso   1.00
C70    C     0.17424   0.43092   0.40168   0.00000  Uiso   1.00
O71    O     0.04085   0.42517   0.18979   0.00000  Uiso   1.00
O72    O     0.11462   0.37267   0.26830   0.00000  Uiso   1.00
C73    C     0.12922   0.55394   0.30035   0.00000  Uiso   1.00
C74    C     0.21805   0.47862   0.18078   0.00000  Uiso   1.00
O75    O    -0.02757   0.19796   0.75894   0.00000  Uiso   1.00
O76    O     0.00741   0.16982   0.62889   0.00000  Uiso   1.00
O77    O    -0.00620   0.39031   0.94224   0.00000  Uiso   1.00
C78    C     0.02699   0.48749   0.83354   0.00000  Uiso   1.00
C79    C     0.14746   0.42262   0.58107   0.00000  Uiso   1.00
O80    O     0.09648   0.32096   0.69721   0.00000  Uiso   1.00
C81    C     0.21135   0.50369   0.72777   0.00000  Uiso   1.00
C82    C     0.26198   0.36820   0.64598   0.00000  Uiso   1.00
O83    O     0.02311   0.54836   0.12741   0.00000  Uiso   1.00
O84    O     0.10993   0.49998   0.02214   0.00000  Uiso   1.00
O85    O     0.06928   0.63840   0.01830   0.00000  Uiso   1.00
C86    C     0.12986   0.82889   0.02143   0.00000  Uiso   1.00
C87    C     0.01292   0.71159   0.92174   0.00000  Uiso   1.00
C88    C     0.19104   0.70747   0.91616   0.00000  Uiso   1.00
C89    C     0.19159   0.91201   0.75252   0.00000  Uiso   1.00
C90    C     0.19740   0.98433   0.61844   0.00000  Uiso   1.00
C91    C     0.05575   0.74577   0.33666   0.00000  Uiso   1.00
C92    C     0.23851   0.84374   0.34308   0.00000  Uiso   1.00
C93    C     0.14176   0.91551   0.27689   0.00000  Uiso   1.00
C94    C     0.31405   0.13290   0.13709   0.00000  Uiso   1.00
C95    C     0.38034   0.32082   0.11537   0.00000  Uiso   1.00
O96    O     0.34623   0.27553   0.24874   0.00000  Uiso   1.00
C97    C     0.51826  -0.00206  -0.05998   0.00000  Uiso   1.00
C98    C     0.48412   0.15611   0.02473   0.00000  Uiso   1.00
C99    C     0.40742   0.08528   0.88653   0.00000  Uiso   1.00
C100   C     0.55646   0.07451   0.31927   0.00000  Uiso   1.00
C101   C     0.41644   1.02821   0.24382   0.00000  Uiso   1.00
O102   O     0.46851   0.24255   0.17959   0.00000  Uiso   1.00
O103   O     0.51678   0.20958   0.28726   0.00000  Uiso   1.00
C104   C     0.56887   0.38672   0.26945   0.00000  Uiso   1.00
C105   C     0.50671   0.94945   0.75409   0.00000  Uiso   1.00
C106   C     0.62812   1.03363   0.65189   0.00000  Uiso   1.00
C107   C     0.42548   0.20948   0.70973   0.00000  Uiso   1.00
O108   O     0.52898   0.11817   0.72997   0.00000  Uiso   1.00
C109   C     0.59832   0.23498   0.63928   0.00000  Uiso   1.00
C110   C     0.68826   0.63582   0.38802   0.00000  Uiso   1.00
C111   C     0.56754   0.50749   0.48756   0.00000  Uiso   1.00
C112   C     0.71610   0.66407   0.53824   0.00000  Uiso   1.00
C113   C     0.46952   0.32976   0.89121   0.00000  Uiso   1.00
O114   O     0.57250   0.28176   0.78517   0.00000  Uiso   1.00
C115   C     0.11680   0.16513   0.71492   0.00000  Uiso   1.00
C116   C     0.25272   0.36065   0.82935   0.00000  Uiso   1.00
C117   C     0.29429   0.39184   0.97786   0.00000  Uiso   1.00
C118   C     0.28715   0.54845   0.92546   0.00000  Uiso   1.00
O119   O     0.14291   0.39663   0.92995   0.00000  Uiso   1.00
C120   C     0.46018   0.44983   0.70250   0.00000  Uiso   1.00
O121   O     0.56659   0.43430   0.78474   0.00000  Uiso   1.00
C122   C     0.46325   0.53527   0.85020   0.00000  Uiso   1.00
C123   C     0.61216   0.60334   0.75150   0.00000  Uiso   1.00
C124   C     0.41416   0.74276   0.35876   0.00000  Uiso   1.00
C125   C     0.44854   0.57773   0.31810   0.00000  Uiso   1.00
C126   C     0.58618   0.76077   0.32309   0.00000  Uiso   1.00
O127   O     0.17404   0.65201   0.10570   0.00000  Uiso   1.00
C128   C     0.29576   0.71759   0.20919   0.00000  Uiso   1.00
C129   C     0.28479   0.83181   0.10935   0.00000  Uiso   1.00
O130   O     0.16106   0.76263   0.21361   0.00000  Uiso   1.00
O131   O     0.46430   0.69253   0.22325   0.00000  Uiso   1.00
C132   C     0.47798   0.75548   0.09494   0.00000  Uiso   1.00
C133   C     0.42492   0.55913   1.10358   0.00000  Uiso   1.00
C134   C     0.59930   0.67664   1.13795   0.00000  Uiso   1.00
C135   C     0.41078   0.66235   0.53358   0.00000  Uiso   1.00
O136   O     0.57642   0.68095   0.48768   0.00000  Uiso   1.00
C137   C     0.55544   0.84563   0.52514   0.00000  Uiso   1.00
C138   C     0.54646   0.72798   0.63165   0.00000  Uiso   1.00
C139   C     0.44989   1.04596   0.49550   0.00000  Uiso   1.00
C140   C     0.47910   1.23936   0.50559   0.00000  Uiso   1.00
O141   O     0.42526   1.11971   0.38181   0.00000  Uiso   1.00
C142   C     0.30587   1.10179   0.49991   0.00000  Uiso   1.00
O143   O     0.82887   0.04973   0.12859   0.00000  Uiso   1.00
C144   C     0.67863   0.94232   0.20419   0.00000  Uiso   1.00
C145   C     0.63802   0.11473   0.10169   0.00000  Uiso   1.00
O146   O     0.62418   0.26229   0.18218   0.00000  Uiso   1.00
O147   O     0.88479   0.18900   0.87837   0.00000  Uiso   1.00
C148   C     0.70325  -0.10055   0.04972   0.00000  Uiso   1.00
C149   C     0.79570   0.08115  -0.02184   0.00000  Uiso   1.00
O150   O     0.85129   0.15013   0.42617   0.00000  Uiso   1.00
C151   C     0.68349   1.02016   0.41382   0.00000  Uiso   1.00
O152   O     0.86424   0.19562   0.21542   0.00000  Uiso   1.00
O153   O     0.71547   0.19302   0.22862   0.00000  Uiso   1.00
O154   O     0.76966   0.12530   0.31187   0.00000  Uiso   1.00
C155   C     0.77625  -0.07620   0.66614   0.00000  Uiso   1.00
O156   O     0.85535   0.05072   0.78051   0.00000  Uiso   1.00
C157   C     0.76010   0.86942   0.80246   0.00000  Uiso   1.00
O158   O     0.64652   0.10898   0.79264   0.00000  Uiso   1.00
O159   O     0.72922   0.16072   0.90864   0.00000  Uiso   1.00
O160   O     0.58564   0.17091   0.90198   0.00000  Uiso   1.00
O161   O     0.77316   0.28521   0.12654   0.00000  Uiso   1.00
O162   O     0.84869   0.26589  -0.00340   0.00000  Uiso   1.00
O163   O     0.92107   0.38255   0.10680   0.00000  Uiso   1.00
O164   O     0.91862   0.49555   0.95638   0.00000  Uiso   1.00
O165   O     0.81214   0.40795   0.04957   0.00000  Uiso   1.00
C166   C     0.74497   0.29425   0.45891   0.00000  Uiso   1.00
O167   O     0.82215   0.29048   0.32754   0.00000  Uiso   1.00
C168   C     0.74192   0.41316   0.35488   0.00000  Uiso   1.00
C169   C     0.89341   0.44630   0.42340   0.00000  Uiso   1.00
O170   O     0.71751   0.27652   0.83981   0.00000  Uiso   1.00
C171   C     0.83276   0.27281   0.72962   0.00000  Uiso   1.00
O172   O     0.87939   0.35562   0.85908   0.00000  Uiso   1.00
O173   O     0.63995   0.40422   0.88165   0.00000  Uiso   1.00
O174   O     0.76906   0.47398   0.95303   0.00000  Uiso   1.00
C175   C     0.67028   0.58279   0.96177   0.00000  Uiso   1.00
C176   C     0.61358   0.40954   1.02737   0.00000  Uiso   1.00
C177   C     0.92781   0.53070   0.69157   0.00000  Uiso   1.00
C178   C     0.74844   0.43825   0.66344   0.00000  Uiso   1.00
O179   O     0.81385   0.42744   0.79106   0.00000  Uiso   1.00
C180   C     0.81389   0.59416   0.78420   0.00000  Uiso   1.00
C181   C     0.74947   0.56541   0.17999   0.00000  Uiso   1.00
O182   O     0.85731   0.58306   0.05962   0.00000  Uiso   1.00
C183   C     0.92390   0.68597   0.18611   0.00000  Uiso   1.00
C184   C     0.96481   0.87830   1.10544   0.00000  Uiso   1.00
O185   O     0.81995   0.72043   0.11528   0.00000  Uiso   1.00
O186   O     0.80454   0.87523   0.13114   0.00000  Uiso   1.00
C187   C     0.83283   0.78852   0.99418   0.00000  Uiso   1.00
C188   C     1.26330   0.80653   0.53999   0.00000  Uiso   1.00
C189   C     1.08853   0.67756   0.50999   0.00000  Uiso   1.00
O190   O     1.12508   0.80368   0.63469   0.00000  Uiso   1.00
C191   C     0.96136   0.97786   0.35407   0.00000  Uiso   1.00
C192   C     0.81962   0.83196   0.28482   0.00000  Uiso   1.00
C193   C     1.17502   0.66178   0.62753   0.00000  Uiso   1.00
C194   C     0.80797   0.89741   0.44021   0.00000  Uiso   1.00
O195   O     0.82251   1.01011   0.34016   0.00000  Uiso   1.00
O196   O     1.04841   0.90813   0.69512   0.00000  Uiso   1.00
C197   C     0.90676   0.76718   0.64051   0.00000  Uiso   1.00
C198   C     0.94763   0.80829   0.79308   0.00000  Uiso   1.00
O199   O     0.91188   0.92614   0.72463   0.00000  Uiso   1.00
H200   H    -0.03720  -0.00091  -0.01401   0.00000  Uiso   1.00
H201   H     0.03010  -0.03837  -0.05473   0.00000  Uiso   1.00
H202   H    -0.06317  -0.05751  -0.10227   0.00000  Uiso   1.00
H203   H     0.16224   0.20540   0.88974   0.00000  Uiso   1.00
H204   H     0.17057   0.10386   0.86067   0.00000  Uiso   1.00
H205   H     0.16276   0.13043   0.95024   0.00000  Uiso   1.00
H206   H     0.83652   0.14293   0.61729   0.00000  Uiso   1.00
H207   H     0.77379   0.05389   0.55875   0.00000  Uiso   1.00
H208   H     0.76055   0.15865   0.57162   0.00000  Uiso   1.00
H209   H    -0.01216   0.05234   0.16114   0.00000  Uiso   1.00
H210   H    -0.05934   0.07677   0.24663   0.00000  Uiso   1.00
H211   H     0.02727   0.15194   0.21810   0.00000  Uiso   1.00
H212   H     0.20164   0.10855   0.27478   0.00000  Uiso   1.00
H213   H     0.16808   0.13450   0.35854   0.00000  Uiso   1.00
H214   H     0.26006   0.12192   0.34874   0.00000  Uiso   1.00
H215   H     0.35691   0.40480   0.39423   0.00000  Uiso   1.00
H216   H     0.39556   0.31707   0.38649   0.00000  Uiso   1.00
H217   H     0.30323   0.30100   0.44087   0.00000  Uiso   1.00
H218   H    -0.04518  -0.05256   0.50986   0.00000  Uiso   1.00
H219   H    -0.04481  -0.02230   0.60613   0.00000  Uiso   1.00
H220   H     0.04561  -0.01270   0.55460   0.00000  Uiso   1.00
H221   H     0.14993   0.15035   0.55523   0.00000  Uiso   1.00
H222   H     0.15099   0.23617   0.50959   0.00000  Uiso   1.00
H223   H     0.11701   0.11701   0.46562   0.00000  Uiso   1.00
H224   H     0.17739   0.25400   0.04669   0.00000  Uiso   1.00
H225   H     0.11661   0.14941   0.07405   0.00000  Uiso   1.00
H226   H     0.12789   0.25151   0.13050   0.00000  Uiso   1.00
H227   H     0.89146   0.42246   0.27059   0.00000  Uiso   1.00
H228   H     0.85327   0.48132   0.22550   0.00000  Uiso   1.00
H229   H     0.94462   0.54189   0.27688   0.00000  Uiso   1.00
H230   H    -0.01957   0.30370   0.56834   0.00000  Uiso   1.00
H231   H    -0.10517   0.32121   0.54464   0.00000  Uiso   1.00
H232   H    -0.01616   0.32905   0.48447   0.00000  Uiso   1.00
H233   H     0.00992   0.24036   0.32332   0.00000  Uiso   1.00
H234   H     0.04582   0.25855   0.41471   0.00000  Uiso   1.00
H235   H     0.08124   0.18727   0.34806   0.00000  Uiso   1.00
H236   H     0.22091   0.49200   0.38409   0.00000  Uiso   1.00
H237   H     0.19807   0.41179   0.44670   0.00000  Uiso   1.00
H238   H     0.11874   0.43933   0.42325   0.00000  Uiso   1.00
H239   H     0.11860   0.60150   0.27668   0.00000  Uiso   1.00
H240   H     0.18756   0.58108   0.33020   0.00000  Uiso   1.00
H241   H     0.08455   0.53318   0.33951   0.00000  Uiso   1.00
H242   H     0.23202   0.41921   0.16936   0.00000  Uiso   1.00
H243   H     0.27157   0.53493   0.21340   0.00000  Uiso   1.00
H244   H     0.21977   0.50711   0.13162   0.00000  Uiso   1.00
H245   H     0.08778   0.51082   0.85533   0.00000  Uiso   1.00
H246   H    -0.00031   0.53616   0.82586   0.00000  Uiso   1.00
H247   H     0.02524   0.44042   0.78312   0.00000  Uiso   1.00
H248   H     0.09382   0.44317   0.59484   0.00000  Uiso   1.00
H249   H     0.13419   0.36400   0.54296   0.00000  Uiso   1.00
H250   H     0.20700   0.47562   0.56713   0.00000  Uiso   1.00
H251   H     0.20937   0.48800   0.78109   0.00000  Uiso   1.00
H252   H     0.16591   0.53603   0.72531   0.00000  Uiso   1.00
H253   H     0.27145   0.54658   0.70867   0.00000  Uiso   1.00
H254   H     0.26864   0.33349   0.68773   0.00000  Uiso   1.00
H255   H     0.31442   0.42916   0.63376   0.00000  Uiso   1.00
H256   H     0.24612   0.31230   0.60148   0.00000  Uiso   1.00
H257   H     0.13008   0.82743   0.07649   0.00000  Uiso   1.00
H258   H     0.09515   0.86821   0.00910   0.00000  Uiso   1.00
H259   H     0.19725   0.86690   0.00372   0.00000  Uiso   1.00
H260   H     0.03127   0.70209   0.86595   0.00000  Uiso   1.00
H261   H     0.01118   0.77836   0.93038   0.00000  Uiso   1.00
H262   H    -0.04770   0.66047   0.93381   0.00000  Uiso   1.00
H263   H     0.23810   0.71693   0.94806   0.00000  Uiso   1.00
H264   H     0.20684   0.75644   0.88069   0.00000  Uiso   1.00
H265   H     0.17501   0.64425   0.87955   0.00000  Uiso   1.00
H266   H     0.25990   0.92582   0.74159   0.00000  Uiso   1.00
H267   H     0.16120   0.85472   0.78443   0.00000  Uiso   1.00
H268   H     0.19396   0.97493   0.78645   0.00000  Uiso   1.00
H269   H     0.26466   1.01021   0.62881   0.00000  Uiso   1.00
H270   H     0.18209   1.04492   0.62786   0.00000  Uiso   1.00
H271   H     0.18505   0.95352   0.56470   0.00000  Uiso   1.00
H272   H     0.05522   0.67749   0.33938   0.00000  Uiso   1.00
H273   H     0.00114   0.74030   0.31283   0.00000  Uiso   1.00
H274   H     0.05974   0.79117   0.38864   0.00000  Uiso   1.00
H275   H     0.29777   0.88147   0.31707   0.00000  Uiso   1.00
H276   H     0.23580   0.78087   0.35811   0.00000  Uiso   1.00
H277   H     0.23932   0.89009   0.39164   0.00000  Uiso   1.00
H278   H     0.13673   0.95365   0.33041   0.00000  Uiso   1.00
H279   H     0.09352   0.90295   0.24002   0.00000  Uiso   1.00
H280   H     0.20225   0.95241   0.25292   0.00000  Uiso   1.00
H281   H     0.31442   0.08024   0.16419   0.00000  Uiso   1.00
H282   H     0.33104   0.11483   0.08383   0.00000  Uiso   1.00
H283   H     0.25395   0.13378   0.13644   0.00000  Uiso   1.00
H284   H     0.38370   0.29630   0.06004   0.00000  Uiso   1.00
H285   H     0.43937   0.38301   0.12962   0.00000  Uiso   1.00
H286   H     0.32939   0.34486   0.12669   0.00000  Uiso   1.00
H287   H     0.58241   0.00617  -0.05945   0.00000  Uiso   1.00
H288   H     0.49132  -0.05853  -0.09841   0.00000  Uiso   1.00
H289   H     0.49308  -0.01601  -0.00775   0.00000  Uiso   1.00
H290   H     0.44079   0.10296   0.05083   0.00000  Uiso   1.00
H291   H     0.45673   0.20448   0.02267   0.00000  Uiso   1.00
H292   H     0.54151   0.18757   0.05243   0.00000  Uiso   1.00
H293   H     0.42166   0.10428   0.83489   0.00000  Uiso   1.00
H294   H     0.37769   0.12810   0.91450   0.00000  Uiso   1.00
H295   H     0.36608   0.01720   0.88689   0.00000  Uiso   1.00
H296   H     0.52058   0.00753   0.33646   0.00000  Uiso   1.00
H297   H     0.59982   0.12262   0.35712   0.00000  Uiso   1.00
H298   H     0.59326   0.06559   0.27459   0.00000  Uiso   1.00
H299   H     0.43113   0.96908   0.23711   0.00000  Uiso   1.00
H300   H     0.44739   1.06089   0.19639   0.00000  Uiso   1.00
H301   H     0.35126   1.02075   0.24717   0.00000  Uiso   1.00
H302   H     0.53604   0.40905   0.23806   0.00000  Uiso   1.00
H303   H     0.63679   0.42602   0.26267   0.00000  Uiso   1.00
H304   H     0.54505   0.38742   0.32374   0.00000  Uiso   1.00
H305   H     0.54534   0.91250   0.76544   0.00000  Uiso   1.00
H306   H     0.46634   0.90795   0.71352   0.00000  Uiso   1.00
H307   H     0.46853   0.96238   0.79906   0.00000  Uiso   1.00
H308   H     0.59910   1.04485   0.60853   0.00000  Uiso   1.00
H309   H     0.61579   0.96000   0.64486   0.00000  Uiso   1.00
H310   H     0.68799   1.08021   0.65718   0.00000  Uiso   1.00
H311   H     0.42611   0.26121   0.67960   0.00000  Uiso   1.00
H312   H     0.38992   0.22397   0.75771   0.00000  Uiso   1.00
H313   H     0.39148   0.14708   0.67541   0.00000  Uiso   1.00
H314   H     0.66259   0.24713   0.65157   0.00000  Uiso   1.00
H315   H     0.60290   0.29605   0.62023   0.00000  Uiso   1.00
H316   H     0.56687   0.17497   0.60106   0.00000  Uiso   1.00
H317   H     0.63897   0.61648   0.34891   0.00000  Uiso   1.00
H318   H     0.71285   0.58779   0.37694   0.00000  Uiso   1.00
H319   H     0.73779   0.70163   0.38744   0.00000  Uiso   1.00
H320   H     0.59918   0.45789   0.48449   0.00000  Uiso   1.00
H321   H     0.52242   0.48293   0.44664   0.00000  Uiso   1.00
H322   H     0.53337   0.50398   0.53803   0.00000  Uiso   1.00
H323   H     0.68551   0.64198   0.58612   0.00000  Uiso   1.00
H324   H     0.75881   0.72994   0.54368   0.00000  Uiso   1.00
H325   H     0.75377   0.62369   0.51613   0.00000  Uiso   1.00
H326   H     0.46546   0.27661   0.91909   0.00000  Uiso   1.00
H327   H     0.41531   0.29790   0.86162   0.00000  Uiso   1.00
H328   H     0.46636   0.38447   0.93256   0.00000  Uiso   1.00
H329   H     0.08178   0.08837   0.69916   0.00000  Uiso   1.00
H330   H     0.12784   0.18358   0.77021   0.00000  Uiso   1.00
H331   H     0.17197   0.17905   0.68425   0.00000  Uiso   1.00
H332   H     0.28108   0.30991   0.82753   0.00000  Uiso   1.00
H333   H     0.29588   0.40697   0.79951   0.00000  Uiso   1.00
H334   H     0.19255   0.32609   0.80395   0.00000  Uiso   1.00
H335   H     0.36086   0.43228   0.96934   0.00000  Uiso   1.00
H336   H     0.28104   0.32202   0.97172   0.00000  Uiso   1.00
H337   H     0.27551   0.41976   1.03183   0.00000  Uiso   1.00
H338   H     0.28554   0.57248   0.87684   0.00000  Uiso   1.00
H339   H     0.35027   0.56485   0.93995   0.00000  Uiso   1.00
H340   H     0.25967   0.58031   0.96606   0.00000  Uiso   1.00
H341   H     0.42532   0.49416   0.69548   0.00000  Uiso   1.00
H342   H     0.41117   0.39176   0.71647   0.00000  Uiso   1.00
H343   H     0.49225   0.42744   0.65507   0.00000  Uiso   1.00
H344   H     0.42339   0.47336   0.87335   0.00000  Uiso   1.00
H345   H     0.42574   0.56312   0.82933   0.00000  Uiso   1.00
H346   H     0.50491   0.59121   0.88745   0.00000  Uiso   1.00
H347   H     0.59583   0.64139   0.71575   0.00000  Uiso   1.00
H348   H     0.66003   0.57963   0.72395   0.00000  Uiso   1.00
H349   H     0.63254   0.64994   0.80162   0.00000  Uiso   1.00
H350   H     0.44147   0.77492   0.41071   0.00000  Uiso   1.00
H351   H     0.35179   0.69118   0.36739   0.00000  Uiso   1.00
H352   H     0.40247   0.79410   0.33501   0.00000  Uiso   1.00
H353   H     0.44820   0.57131   0.37503   0.00000  Uiso   1.00
H354   H     0.49171   0.55231   0.28499   0.00000  Uiso   1.00
H355   H     0.38637   0.53100   0.30502   0.00000  Uiso   1.00
H356   H     0.58616   0.75208   0.37841   0.00000  Uiso   1.00
H357   H     0.59988   0.83182   0.31916   0.00000  Uiso   1.00
H358   H     0.62431   0.72798   0.28816   0.00000  Uiso   1.00
H359   H     0.31636   0.67438   0.17094   0.00000  Uiso   1.00
H360   H     0.26931   0.69166   0.25629   0.00000  Uiso   1.00
H361   H     0.34676   0.78000   0.22211   0.00000  Uiso   1.00
H362   H     0.33665   0.87216   0.13891   0.00000  Uiso   1.00
H363   H     0.25266   0.87980   0.11471   0.00000  Uiso   1.00
H364   H     0.30947   0.81249   0.06014   0.00000  Uiso   1.00
H365   H     0.50470   0.82458   0.11924   0.00000  Uiso   1.00
H366   H     0.41041   0.73214   0.08743   0.00000  Uiso   1.00
H367   H     0.50612   0.75178   0.04369   0.00000  Uiso   1.00
H368   H     0.36898   0.55505   1.08776   0.00000  Uiso   1.00
H369   H     0.41224   0.51076   1.13959   0.00000  Uiso   1.00
H370   H     0.45664   0.54098   1.05398   0.00000  Uiso   1.00
H371   H     0.63606   0.73698   1.16668   0.00000  Uiso   1.00
H372   H     0.62153   0.68269   1.08580   0.00000  Uiso   1.00
H373   H     0.59826   0.61777   1.15533   0.00000  Uiso   1.00
H374   H     0.38960   0.66861   0.47935   0.00000  Uiso   1.00
H375   H     0.37027   0.67697   0.57651   0.00000  Uiso   1.00
H376   H     0.39655   0.59432   0.53378   0.00000  Uiso   1.00
H377   H     0.62146   0.87835   0.53030   0.00000  Uiso   1.00
H378   H     0.51565   0.88008   0.55722   0.00000  Uiso   1.00
H379   H     0.54893   0.84131   0.46676   0.00000  Uiso   1.00
H380   H     0.60291   0.78350   0.64915   0.00000  Uiso   1.00
H381   H     0.53349   0.65809   0.63711   0.00000  Uiso   1.00
H382   H     0.49634   0.74701   0.66700   0.00000  Uiso   1.00
H383   H     0.42682   1.03086   0.55134   0.00000  Uiso   1.00
H384   H     0.51841   1.06630   0.49257   0.00000  Uiso   1.00
H385   H     0.41797   0.98415   0.45823   0.00000  Uiso   1.00
H386   H     0.54613   1.24985   0.49921   0.00000  Uiso   1.00
H387   H     0.46215   1.24299   0.56102   0.00000  Uiso   1.00
H388   H     0.46533   1.28760   0.47941   0.00000  Uiso   1.00
H389   H     0.28764   1.15717   0.49022   0.00000  Uiso   1.00
H390   H     0.31586   1.11453   0.55509   0.00000  Uiso   1.00
H391   H     0.26675   1.03816   0.47709   0.00000  Uiso   1.00
H392   H     0.63204   0.87067   0.20256   0.00000  Uiso   1.00
H393   H     0.64155   0.98108   0.19739   0.00000  Uiso   1.00
H394   H     0.71028   0.97054   0.25454   0.00000  Uiso   1.00
H395   H     0.64813   0.12372   0.04448   0.00000  Uiso   1.00
H396   H     0.56609   0.09021   0.10965   0.00000  Uiso   1.00
H397   H     0.65727   0.06343   0.11213   0.00000  Uiso   1.00
H398   H     0.74408  -0.11670   0.00375   0.00000  Uiso   1.00
H399   H     0.67371  -0.06032   0.03612   0.00000  Uiso   1.00
H400   H     0.65269  -0.16281   0.05875   0.00000  Uiso   1.00
H401   H     0.85122   0.06599  -0.03744   0.00000  Uiso   1.00
H402   H     0.74154   0.02493  -0.03987   0.00000  Uiso   1.00
H403   H     0.79799   0.10271   0.03491   0.00000  Uiso   1.00
H404   H     0.64658   0.97884   0.37443   0.00000  Uiso   1.00
H405   H     0.66374   1.06827   0.44615   0.00000  Uiso   1.00
H406   H     0.69175   0.97791   0.44856   0.00000  Uiso   1.00
H407   H     0.81084  -0.02414   0.63266   0.00000  Uiso   1.00
H408   H     0.71743  -0.06944   0.67580   0.00000  Uiso   1.00
H409   H     0.76663  -0.14424   0.64294   0.00000  Uiso   1.00
H410   H     0.73450   0.80307   0.77144   0.00000  Uiso   1.00
H411   H     0.70483   0.88753   0.81844   0.00000  Uiso   1.00
H412   H     0.78606   0.86312   0.84911   0.00000  Uiso   1.00
H413   H     0.68229   0.25013   0.43642   0.00000  Uiso   1.00
H414   H     0.74265   0.34556   0.50269   0.00000  Uiso   1.00
H415   H     0.77195   0.24963   0.46601   0.00000  Uiso   1.00
H416   H     0.74526   0.39155   0.29553   0.00000  Uiso   1.00
H417   H     0.77956   0.48906   0.36402   0.00000  Uiso   1.00
H418   H     0.68311   0.39694   0.37901   0.00000  Uiso   1.00
H419   H     0.92640   0.50153   0.39112   0.00000  Uiso   1.00
H420   H     0.94316   0.42293   0.42659   0.00000  Uiso   1.00
H421   H     0.87501   0.47828   0.47545   0.00000  Uiso   1.00
H422   H     0.90062   0.31052   0.70616   0.00000  Uiso   1.00
H423   H     0.79073   0.26367   0.69020   0.00000  Uiso   1.00
H424   H     0.82039   0.20392   0.74027   0.00000  Uiso   1.00
H425   H     0.71284   0.62264   0.99984   0.00000  Uiso   1.00
H426   H     0.60744   0.57671   0.97784   0.00000  Uiso   1.00
H427   H     0.68840   0.60760   0.91008   0.00000  Uiso   1.00
H428   H     0.65197   0.43954   1.07224   0.00000  Uiso   1.00
H429   H     0.60679   0.34104   1.02037   0.00000  Uiso   1.00
H430   H     0.55175   0.40999   1.03457   0.00000  Uiso   1.00
H431   H     0.92398   0.53036   0.63337   0.00000  Uiso   1.00
H432   H     0.95980   0.48515   0.69617   0.00000  Uiso   1.00
H433   H     0.96196   0.59887   0.71519   0.00000  Uiso   1.00
H434   H     0.74840   0.37181   0.64098   0.00000  Uiso   1.00
H435   H     0.76431   0.47943   0.62277   0.00000  Uiso   1.00
H436   H     0.68909   0.42812   0.68648   0.00000  Uiso   1.00
H437   H     0.74740   0.57359   0.80732   0.00000  Uiso   1.00
H438   H     0.83130   0.63069   0.73969   0.00000  Uiso   1.00
H439   H     0.86415   0.61952   0.81988   0.00000  Uiso   1.00
H440   H     0.68684   0.55556   0.16777   0.00000  Uiso   1.00
H441   H     0.75217   0.57333   0.23473   0.00000  Uiso   1.00
H442   H     0.75715   0.50147   0.16921   0.00000  Uiso   1.00
H443   H     0.98871   0.69575   0.16601   0.00000  Uiso   1.00
H444   H     0.90480   0.64554   0.23047   0.00000  Uiso   1.00
H445   H     0.93694   0.75924   0.21251   0.00000  Uiso   1.00
H446   H     0.96768   0.90243   1.16465   0.00000  Uiso   1.00
H447   H     0.98891   0.92646   1.06435   0.00000  Uiso   1.00
H448   H     0.99615   0.83321   1.09726   0.00000  Uiso   1.00
H449   H     0.86854   0.84484   0.97083   0.00000  Uiso   1.00
H450   H     0.76532   0.76596   0.98997   0.00000  Uiso   1.00
H451   H     0.86027   0.73871   0.96931   0.00000  Uiso   1.00
H452   H     1.26673   0.87707   0.53944   0.00000  Uiso   1.00
H453   H     1.27253   0.77246   0.48511   0.00000  Uiso   1.00
H454   H     1.31830   0.82255   0.56821   0.00000  Uiso   1.00
H455   H     1.12551   0.67359   0.46119   0.00000  Uiso   1.00
H456   H     1.04624   0.70997   0.50296   0.00000  Uiso   1.00
H457   H     1.04971   0.60623   0.51239   0.00000  Uiso   1.00
H458   H     0.98610   1.04973   0.37562   0.00000  Uiso   1.00
H459   H     0.98185   0.96100   0.30226   0.00000  Uiso   1.00
H460   H     0.97940   0.94058   0.38572   0.00000  Uiso   1.00
H461   H     0.86163   0.85606   0.23723   0.00000  Uiso   1.00
H462   H     0.75633   0.81348   0.26682   0.00000  Uiso   1.00
H463   H     0.82270   0.77389   0.30179   0.00000  Uiso   1.00
H464   H     1.21945   0.63540   0.60634   0.00000  Uiso   1.00
H465   H     1.12011   0.60421   0.63803   0.00000  Uiso   1.00
H466   H     1.19258   0.69982   0.67825   0.00000  Uiso   1.00
H467   H     0.80410   0.95180   0.48107   0.00000  Uiso   1.00
H468   H     0.83951   0.86178   0.45828   0.00000  Uiso   1.00
H469   H     0.74349   0.85490   0.43145   0.00000  Uiso   1.00
H470   H     0.94122   0.71968   0.62658   0.00000  Uiso   1.00
H471   H     0.90886   0.79966   0.59639   0.00000  Uiso   1.00
H472   H     0.84077   0.73876   0.65917   0.00000  Uiso   1.00
H473   H     0.99836   0.85001   0.82383   0.00000  Uiso   1.00
H474   H     0.95473   0.74337   0.77957   0.00000  Uiso   1.00
H475   H     0.88897   0.78576   0.82375   0.00000  Uiso   1.00
loop_
_geom_bond_atom_site_label_1
_geom_bond_atom_site_label_2
_geom_bond_distance
_geom_bond_site_symmetry_2
_ccdc_geom_bond_type
Si1    C55     1.864   .     S
Si1    O62     1.606   .     S
Si1    O143    1.604   1_455 S
Si1    O152    1.615   1_455 S
Si2    C52     1.846   .     S
Si2    O63     1.613   .     S
Si2    C53     1.836   1_554 S
Si2    O58     1.549   1_554 S
Si3    O59     1.604   .     S
Si3    C67     1.838   .     S
Si3    C54     1.877   1_455 S
Si3    O150    1.613   1_455 S
Si4    C56     1.885   .     S
Si4    C57     1.895   .     S
Si4    O69     1.617   .     S
Si4    O96     1.620   .     S
Si5    O58     1.651   .     S
Si5    O75     1.575   .     S
Si5    O147    1.611   1_455 S
Si5    O156    1.587   1_455 S
Si6    O59     1.567   .     S
Si6    C60     1.903   .     S
Si6    C61     1.859   .     S
Si6    O76     1.592   .     S
Si7    O62     1.574   .     S
Si7    O63     1.531   .     S
Si7    C64     1.859   .     S
Si7    O66     1.620   .     S
Si8    O71     1.636   .     S
Si8    O83     1.580   .     S
Si8    C65     1.886   1_455 S
Si8    O163    1.603   1_455 S
Si9    O66     1.642   .     S
Si9    O84     1.568   .     S
Si9    O77     1.608   1_554 S
Si9    O119    1.543   1_554 S
Si10   C68     1.877   .     S
Si10   O69     1.584   .     S
Si10   C70     1.841   .     S
Si10   O72     1.587   .     S
Si11   O71     1.589   .     S
Si11   O72     1.594   .     S
Si11   C73     1.857   .     S
Si11   C74     1.873   .     S
Si12   O75     1.627   .     S
Si12   O76     1.564   .     S
Si12   O80     1.588   .     S
Si12   C115    1.846   .     S
Si13   O77     1.560   .     S
Si13   C78     1.849   .     S
Si13   O164    1.607   1_455 S
Si13   O172    1.582   1_455 S
Si14   C79     1.869   .     S
Si14   O80     1.611   .     S
Si14   C81     1.917   .     S
Si14   C82     1.811   .     S
Si15   O83     1.602   .     S
Si15   O84     1.644   .     S
Si15   O85     1.616   .     S
Si15   O127    1.595   .     S
Si16   O85     1.576   .     S
Si16   C86     1.863   .     S
Si16   C87     1.891   1_554 S
Si16   C88     1.882   1_554 S
Si17   C89     1.838   .     S
Si17   C90     1.873   .     S
Si17   O190    1.588   1_455 S
Si17   O196    1.605   1_455 S
Si18   C91     1.853   .     S
Si18   C92     1.864   .     S
Si18   C93     1.818   .     S
Si18   O130    1.582   .     S
Si19   C94     1.832   .     S
Si19   C95     1.811   .     S
Si19   O96     1.637   .     S
Si19   O102    1.586   .     S
Si20   C97     1.920   .     S
Si20   C98     1.868   .     S
Si20   C99     1.893   1_554 S
Si20   O160    1.616   1_554 S
Si21   C100    1.799   .     S
Si21   O103    1.585   .     S
Si21   C101    1.835   1_545 S
Si21   O141    1.591   1_545 S
Si22   O102    1.599   .     S
Si22   O103    1.609   .     S
Si22   C104    1.841   .     S
Si22   O146    1.612   .     S
Si23   O108    1.579   .     S
Si23   O158    1.569   .     S
Si23   C105    1.851   1_545 S
Si23   C106    1.850   1_545 S
Si24   C107    1.914   .     S
Si24   O108    1.580   .     S
Si24   C109    1.860   .     S
Si24   O114    1.577   .     S
Si25   C110    1.857   .     S
Si25   C111    1.858   .     S
Si25   C112    1.881   .     S
Si25   O136    1.607   .     S
Si26   C113    1.858   .     S
Si26   O114    1.596   .     S
Si26   O121    1.605   .     S
Si26   O173    1.566   .     S
Si27   C116    1.874   .     S
Si27   C117    1.894   .     S
Si27   C118    1.897   .     S
Si27   O119    1.576   .     S
Si28   C120    1.774   .     S
Si28   O121    1.620   .     S
Si28   C122    1.880   .     S
Si28   C123    1.872   .     S
Si29   C124    1.851   .     S
Si29   C125    1.823   .     S
Si29   C126    1.859   .     S
Si29   O131    1.576   .     S
Si30   O127    1.614   .     S
Si30   C128    1.857   .     S
Si30   C129    1.847   .     S
Si30   O130    1.596   .     S
Si31   O131    1.616   .     S
Si31   C132    1.923   .     S
Si31   C133    1.858   1_554 S
Si31   C134    1.846   1_554 S
Si32   C135    1.909   .     S
Si32   O136    1.613   .     S
Si32   C137    1.892   .     S
Si32   C138    1.822   .     S
Si33   C139    1.832   .     S
Si33   C140    1.864   .     S
Si33   O141    1.622   .     S
Si33   C142    1.904   .     S
Si34   O143    1.624   .     S
Si34   C148    1.893   .     S
Si34   C144    1.953   1_545 S
Si34   O186    1.635   1_545 S
Si35   C145    1.859   .     S
Si35   O146    1.559   .     S
Si35   O153    1.613   .     S
Si35   O161    1.640   .     S
Si36   C149    1.815   .     S
Si36   O162    1.594   .     S
Si36   O147    1.599   1_554 S
Si36   O159    1.605   1_554 S
Si37   O150    1.589   .     S
Si37   O154    1.598   .     S
Si37   C151    1.893   1_545 S
Si37   O195    1.559   1_545 S
Si38   O152    1.583   .     S
Si38   O153    1.609   .     S
Si38   O154    1.537   .     S
Si38   O167    1.625   .     S
Si39   C155    1.827   .     S
Si39   O156    1.604   .     S
Si39   C157    1.870   1_545 S
Si39   O199    1.605   1_545 S
Si40   O158    1.587   .     S
Si40   O159    1.622   .     S
Si40   O160    1.587   .     S
Si40   O170    1.600   .     S
Si41   O161    1.596   .     S
Si41   O162    1.680   .     S
Si41   O163    1.590   .     S
Si41   O165    1.575   .     S
Si42   O165    1.655   .     S
Si42   O182    1.622   .     S
Si42   O164    1.598   1_554 S
Si42   O174    1.602   1_554 S
Si43   C166    1.829   .     S
Si43   O167    1.582   .     S
Si43   C168    1.863   .     S
Si43   C169    1.856   .     S
Si44   O170    1.612   .     S
Si44   C171    1.829   .     S
Si44   O172    1.600   .     S
Si44   O179    1.580   .     S
Si45   O173    1.593   .     S
Si45   O174    1.613   .     S
Si45   C175    1.958   .     S
Si45   C176    1.878   .     S
Si46   C177    1.888   .     S
Si46   C178    1.885   .     S
Si46   O179    1.589   .     S
Si46   C180    1.860   .     S
Si47   C181    1.870   .     S
Si47   O182    1.584   .     S
Si47   C183    1.830   .     S
Si47   O185    1.578   .     S
Si48   O185    1.592   .     S
Si48   O186    1.621   .     S
Si48   C184    1.896   1_554 S
Si48   C187    1.864   1_554 S
Si49   C188    1.879   .     S
Si49   C189    1.901   .     S
Si49   O190    1.619   .     S
Si49   C193    1.791   .     S
Si50   C191    1.796   .     S
Si50   C192    1.851   .     S
Si50   C194    1.910   .     S
Si50   O195    1.623   .     S
Si51   O196    1.586   .     S
Si51   C197    1.851   .     S
Si51   C198    1.830   .     S
Si51   O199    1.606   .     S
C52    H200    1.094   .     S
C52    H201    1.129   .     S
C52    H202    1.119   .     S
C53    H203    1.058   .     S
C53    H204    1.137   .     S
C53    H205    1.068   .     S
C53    Si2     1.836   1_556 S
C54    H206    1.084   .     S
C54    H207    1.124   .     S
C54    H208    1.110   .     S
C54    Si3     1.877   1_655 S
C55    H209    1.086   .     S
C55    H210    1.122   .     S
C55    H211    1.036   .     S
C56    H212    1.058   .     S
C56    H213    1.072   .     S
C56    H214    1.123   .     S
C57    H215    1.125   .     S
C57    H216    1.090   .     S
C57    H217    1.125   .     S
O58    Si2     1.549   1_556 S
C60    H218    1.136   .     S
C60    H219    1.099   .     S
C60    H220    1.120   .     S
C61    H221    1.066   .     S
C61    H222    1.145   .     S
C61    H223    1.125   .     S
C64    H224    1.114   .     S
C64    H225    1.153   .     S
C64    H226    1.049   .     S
C65    H227    1.115   .     S
C65    H228    1.103   .     S
C65    H229    1.151   .     S
C65    Si8     1.886   1_655 S
C67    H230    1.129   .     S
C67    H231    1.090   .     S
C67    H232    1.097   .     S
C68    H233    1.158   .     S
C68    H234    1.128   .     S
C68    H235    1.120   .     S
C70    H236    1.109   .     S
C70    H237    1.157   .     S
C70    H238    1.078   .     S
C73    H239    1.064   .     S
C73    H240    1.135   .     S
C73    H241    1.039   .     S
C74    H242    1.086   .     S
C74    H243    1.187   .     S
C74    H244    1.135   .     S
O77    Si9     1.608   1_556 S
C78    H245    1.099   .     S
C78    H246    1.126   .     S
C78    H247    1.141   .     S
C79    H248    1.122   .     S
C79    H249    1.077   .     S
C79    H250    1.119   .     S
C81    H251    1.112   .     S
C81    H252    1.137   .     S
C81    H253    1.092   .     S
C82    H254    1.118   .     S
C82    H255    1.113   .     S
C82    H256    1.124   .     S
C86    H257    1.083   .     S
C86    H258    1.123   .     S
C86    H259    1.158   .     S
C87    H260    1.108   .     S
C87    H261    1.100   .     S
C87    H262    1.108   .     S
C87    Si16    1.891   1_556 S
C88    H263    1.043   .     S
C88    H264    1.092   .     S
C88    H265    1.113   .     S
C88    Si16    1.882   1_556 S
C89    H266    1.144   .     S
C89    H267    1.145   .     S
C89    H268    1.122   .     S
C90    H269    1.126   .     S
C90    H270    1.118   .     S
C90    H271    1.091   .     S
C91    H272    1.137   .     S
C91    H273    1.085   .     S
C91    H274    1.146   .     S
C92    H275    1.110   .     S
C92    H276    1.111   .     S
C92    H277    1.110   .     S
C93    H278    1.139   .     S
C93    H279    1.113   .     S
C93    H280    1.105   .     S
C94    H281    1.099   .     S
C94    H282    1.077   .     S
C94    H283    1.073   .     S
C95    H284    1.092   .     S
C95    H285    1.163   .     S
C95    H286    1.109   .     S
C97    H287    1.092   .     S
C97    H288    1.073   .     S
C97    H289    1.096   .     S
C98    H290    1.080   .     S
C98    H291    1.095   .     S
C98    H292    1.099   .     S
C99    H293    1.085   .     S
C99    H294    1.084   .     S
C99    H295    1.078   .     S
C99    Si20    1.893   1_556 S
C100   H296    1.130   .     S
C100   H297    1.101   .     S
C100   H298    1.058   .     S
C101   H299    1.091   .     S
C101   H300    1.134   .     S
C101   H301    1.109   .     S
C101   Si21    1.835   1_565 S
C104   H302    1.085   .     S
C104   H303    1.128   .     S
C104   H304    1.100   .     S
C105   H305    1.141   .     S
C105   H306    1.078   .     S
C105   H307    1.094   .     S
C105   Si23    1.851   1_565 S
C106   H308    1.115   .     S
C106   H309    1.136   .     S
C106   H310    1.042   .     S
C106   Si23    1.850   1_565 S
C107   H311    1.117   .     S
C107   H312    1.117   .     S
C107   H313    1.114   .     S
C109   H314    1.122   .     S
C109   H315    1.108   .     S
C109   H316    1.120   .     S
C110   H317    1.137   .     S
C110   H318    1.029   .     S
C110   H319    1.100   .     S
C111   H320    1.152   .     S
C111   H321    1.103   .     S
C111   H322    1.099   .     S
C112   H323    1.077   .     S
C112   H324    1.050   .     S
C112   H325    1.125   .     S
C113   H326    1.089   .     S
C113   H327    1.074   .     S
C113   H328    1.119   .     S
C115   H329    1.175   .     S
C115   H330    1.090   .     S
C115   H331    1.056   .     S
C116   H332    1.129   .     S
C116   H333    1.055   .     S
C116   H334    1.118   .     S
C117   H335    1.116   .     S
C117   H336    1.072   .     S
C117   H337    1.146   .     S
C118   H338    1.101   .     S
C118   H339    1.100   .     S
C118   H340    1.057   .     S
O119   Si9     1.543   1_556 S
C120   H341    1.161   .     S
C120   H342    1.067   .     S
C120   H343    1.120   .     S
C122   H344    1.131   .     S
C122   H345    1.089   .     S
C122   H346    1.132   .     S
C123   H347    1.145   .     S
C123   H348    1.119   .     S
C123   H349    1.133   .     S
C124   H350    1.126   .     S
C124   H351    1.118   .     S
C124   H352    1.130   .     S
C125   H353    1.137   .     S
C125   H354    1.110   .     S
C125   H355    1.097   .     S
C126   H356    1.117   .     S
C126   H357    1.118   .     S
C126   H358    1.130   .     S
C128   H359    1.079   .     S
C128   H360    1.068   .     S
C128   H361    1.084   .     S
C129   H362    1.061   .     S
C129   H363    1.131   .     S
C129   H364    1.064   .     S
C132   H365    1.093   .     S
C132   H366    1.123   .     S
C132   H367    1.074   .     S
C133   H368    1.044   .     S
C133   H369    1.100   .     S
C133   H370    1.123   .     S
C133   Si31    1.858   1_556 S
C134   H371    1.055   .     S
C134   H372    1.060   .     S
C134   H373    1.079   .     S
C134   Si31    1.846   1_556 S
C135   H374    1.197   .     S
C135   H375    1.102   .     S
C135   H376    1.054   .     S
C137   H377    1.088   .     S
C137   H378    1.145   .     S
C137   H379    1.148   .     S
C138   H380    1.099   .     S
C138   H381    1.110   .     S
C138   H382    1.173   .     S
C139   H383    1.158   .     S
C139   H384    1.124   .     S
C139   H385    1.129   .     S
C140   H386    1.127   .     S
C140   H387    1.092   .     S
C140   H388    1.132   .     S
O141   Si21    1.591   1_565 S
C142   H389    1.134   .     S
C142   H390    1.084   .     S
C142   H391    1.059   .     S
O143   Si1     1.604   1_655 S
C144   H392    1.146   .     S
C144   H393    1.114   .     S
C144   H394    1.122   .     S
C144   Si34    1.953   1_565 S
C145   H395    1.141   .     S
C145   H396    1.178   .     S
C145   H397    1.087   .     S
O147   Si5     1.611   1_655 S
O147   Si36    1.599   1_556 S
C148   H398    1.154   .     S
C148   H399    1.074   .     S
C148   H400    1.096   .     S
C149   H401    1.107   .     S
C149   H402    1.082   .     S
C149   H403    1.106   .     S
O150   Si3     1.613   1_655 S
C151   H404    1.032   .     S
C151   H405    1.073   .     S
C151   H406    1.114   .     S
C151   Si37    1.893   1_565 S
O152   Si1     1.615   1_655 S
C155   H407    1.115   .     S
C155   H408    1.085   .     S
C155   H409    1.092   .     S
O156   Si5     1.587   1_655 S
C157   H410    1.103   .     S
C157   H411    1.131   .     S
C157   H412    1.104   .     S
C157   Si39    1.870   1_565 S
O159   Si36    1.605   1_556 S
O160   Si20    1.616   1_556 S
O163   Si8     1.603   1_655 S
O164   Si13    1.607   1_655 S
O164   Si42    1.598   1_556 S
C166   H413    1.149   .     S
C166   H414    1.106   .     S
C166   H415    1.058   .     S
C168   H416    1.157   .     S
C168   H417    1.160   .     S
C168   H418    1.049   .     S
C169   H419    1.131   .     S
C169   H420    1.104   .     S
C169   H421    1.140   .     S
C171   H422    1.200   .     S
C171   H423    1.081   .     S
C171   H424    1.126   .     S
O172   Si13    1.582   1_655 S
O174   Si42    1.602   1_556 S
C175   H425    1.059   .     S
C175   H426    1.094   .     S
C175   H427    1.125   .     S
C176   H428    1.093   .     S
C176   H429    1.078   .     S
C176   H430    1.092   .     S
C177   H431    1.147   .     S
C177   H432    1.126   .     S
C177   H433    1.094   .     S
C178   H434    1.111   .     S
C178   H435    1.080   .     S
C178   H436    1.060   .     S
C180   H437    1.155   .     S
C180   H438    1.095   .     S
C180   H439    1.095   .     S
C181   H440    1.104   .     S
C181   H441    1.061   .     S
C181   H442    1.101   .     S
C183   H443    1.131   .     S
C183   H444    1.130   .     S
C183   H445    1.174   .     S
C184   H446    1.158   .     S
C184   H447    1.160   .     S
C184   H448    1.075   .     S
C184   Si48    1.896   1_556 S
O186   Si34    1.635   1_565 S
C187   H449    1.049   .     S
C187   H450    1.113   .     S
C187   H451    1.130   .     S
C187   Si48    1.864   1_556 S
C188   H452    1.147   .     S
C188   H453    1.150   .     S
C188   H454    1.091   .     S
C189   H455    1.106   .     S
C189   H456    1.110   .     S
C189   H457    1.116   .     S
O190   Si17    1.588   1_655 S
C191   H458    1.114   .     S
C191   H459    1.067   .     S
C191   H460    1.094   .     S
C192   H461    1.152   .     S
C192   H462    1.121   .     S
C192   H463    1.092   .     S
C193   H464    1.058   .     S
C193   H465    1.093   .     S
C193   H466    1.084   .     S
C194   H467    1.114   .     S
C194   H468    1.077   .     S
C194   H469    1.096   .     S
O195   Si37    1.559   1_565 S
O196   Si17    1.605   1_655 S
C197   H470    1.154   .     S
C197   H471    1.084   .     S
C197   H472    1.122   .     S
C198   H473    1.065   .     S
C198   H474    1.114   .     S
C198   H475    1.104   .     S
O199   Si39    1.605   1_565 S
