data_333-13-11-12-15-30-5
_audit_creation_date              2025-03-07
_audit_creation_method            'Materials Studio'
_symmetry_space_group_name_H-M    'P1'
_symmetry_Int_Tables_number       1
_symmetry_cell_setting            triclinic
loop_
_symmetry_equiv_pos_as_xyz
  x,y,z
_cell_length_a                    18.1939
_cell_length_b                    16.1983
_cell_length_c                    17.9672
_cell_angle_alpha                 91.0952
_cell_angle_beta                  88.7334
_cell_angle_gamma                 124.9509
loop_
_atom_site_label
_atom_site_type_symbol
_atom_site_fract_x
_atom_site_fract_y
_atom_site_fract_z
_atom_site_U_iso_or_equiv
_atom_site_adp_type
_atom_site_occupancy
Si1    Si    0.20219  -0.06179   0.42396   0.00000  Uiso   1.00
Si2    Si    0.01480   0.15496   0.53791   0.00000  Uiso   1.00
Si3    Si    0.18337  -0.00207   0.87555   0.00000  Uiso   1.00
Si4    Si   -0.05466   0.17358   0.91705   0.00000  Uiso   1.00
Si5    Si    0.15405   0.13611   0.60744   0.00000  Uiso   1.00
Si6    Si    0.23712   0.28807   0.16343   0.00000  Uiso   1.00
Si7    Si    0.17637   0.34296   0.44825   0.00000  Uiso   1.00
Si8    Si    0.15261   0.44479   0.31087   0.00000  Uiso   1.00
Si9    Si    0.18549   0.52653   0.61860   0.00000  Uiso   1.00
Si10   Si    0.16785   0.61612   0.12333   0.00000  Uiso   1.00
Si11   Si    0.15516   0.62560   0.37615   0.00000  Uiso   1.00
Si12   Si    0.21090   0.82509   0.29320   0.00000  Uiso   1.00
Si13   Si   -0.17103   0.63226   0.87774   0.00000  Uiso   1.00
Si14   Si    0.14772   0.84549   0.75652   0.00000  Uiso   1.00
Si15   Si    0.47280  -0.06088   0.10163   0.00000  Uiso   1.00
Si16   Si    0.65355   0.26561  -0.07010   0.00000  Uiso   1.00
Si17   Si    0.44866  -0.00066   0.42872   0.00000  Uiso   1.00
Si18   Si    0.28889   0.08843   0.55538   0.00000  Uiso   1.00
Si19   Si    0.44353   0.12776   0.32117   0.00000  Uiso   1.00
Si20   Si    0.49367   0.00964   0.74705   0.00000  Uiso   1.00
Si21   Si    0.44130   0.14301   0.66164   0.00000  Uiso   1.00
Si22   Si    0.61622   0.34222   0.06759   0.00000  Uiso   1.00
Si23   Si    0.32427   0.50511   0.21834   0.00000  Uiso   1.00
Si24   Si    0.49196   0.55853   0.00473   0.00000  Uiso   1.00
Si25   Si    0.33421   0.52219   0.54248   0.00000  Uiso   1.00
Si26   Si    0.47229   0.56018   0.32734   0.00000  Uiso   1.00
Si27   Si    0.50502   0.36393   0.71351   0.00000  Uiso   1.00
Si28   Si    0.37637   0.55725   0.87934   0.00000  Uiso   1.00
Si29   Si    0.46365   0.51997   0.65876   0.00000  Uiso   1.00
Si30   Si    0.47323   0.67812   0.12015   0.00000  Uiso   1.00
Si31   Si    0.33538   0.78822   0.20821   0.00000  Uiso   1.00
Si32   Si    0.52659   0.83712  -0.01110   0.00000  Uiso   1.00
Si33   Si    0.49516   0.71081   0.44109   0.00000  Uiso   1.00
Si34   Si    0.46718   0.83974   0.33614   0.00000  Uiso   1.00
Si35   Si    0.52407   0.70460   0.77210   0.00000  Uiso   1.00
Si36   Si    0.40288   0.84370   0.86921   0.00000  Uiso   1.00
Si37   Si    0.51760   0.85540   0.66371   0.00000  Uiso   1.00
Si38   Si    0.75717   0.05628   0.18505   0.00000  Uiso   1.00
Si39   Si    0.82603   0.03252   0.46047   0.00000  Uiso   1.00
Si40   Si    0.57930   0.17875   0.53343   0.00000  Uiso   1.00
Si41   Si    0.83629   0.00819   0.79678   0.00000  Uiso   1.00
Si42   Si    0.91730   0.17535   0.67458   0.00000  Uiso   1.00
Si43   Si    0.84417   0.52741   0.33428   0.00000  Uiso   1.00
Si44   Si    0.86582   0.81387   0.09613   0.00000  Uiso   1.00
Si45   Si    0.61229   0.84377   0.24074   0.00000  Uiso   1.00
Si46   Si    0.81529   0.79403  -0.06517   0.00000  Uiso   1.00
Si47   Si    0.83071   0.56663   0.49525   0.00000  Uiso   1.00
Si48   Si    0.64918   0.87274   0.54758   0.00000  Uiso   1.00
Si49   Si    0.75151   0.85369   0.34245   0.00000  Uiso   1.00
Si50   Si    0.67498   0.83916   0.89073   0.00000  Uiso   1.00
Si51   Si    0.85853   0.86061   0.70468   0.00000  Uiso   1.00
C52    C     0.14794  -0.00163   0.38422   0.00000  Uiso   1.00
C53    C     0.10976   0.82093   0.46777   0.00000  Uiso   1.00
C54    C     0.15300  -0.07501   0.96261   0.00000  Uiso   1.00
C55    C    -0.05998   0.11510   1.00532   0.00000  Uiso   1.00
C56    C     0.06676   0.28065   0.90790   0.00000  Uiso   1.00
C57    C     0.86993   0.21678   0.92591   0.00000  Uiso   1.00
O58    O     0.07586   0.11574   0.55454   0.00000  Uiso   1.00
C59    C     0.31100   0.08843   0.86375   0.00000  Uiso   1.00
C60    C     0.10722   0.10674   0.70501   0.00000  Uiso   1.00
C61    C     0.23861   0.27024   0.62090   0.00000  Uiso   1.00
C62    C     0.14572   0.20783   0.23362   0.00000  Uiso   1.00
C63    C     0.29739   0.22870   0.15172   0.00000  Uiso   1.00
C64    C     0.17616   0.27102   0.07689   0.00000  Uiso   1.00
O65    O     0.08254   0.26834   0.49489   0.00000  Uiso   1.00
C66    C     0.19304   0.25561   0.40131   0.00000  Uiso   1.00
C67    C     0.04085   0.33572   0.27377   0.00000  Uiso   1.00
O68    O     0.17202   0.41148   0.38871   0.00000  Uiso   1.00
C69    C     0.08007   0.43349   0.57183   0.00000  Uiso   1.00
C70    C     0.20469   0.48711   0.70932   0.00000  Uiso   1.00
C71    C     0.17263   0.63312   0.63647   0.00000  Uiso   1.00
C72    C     0.05464   0.54050   0.16410   0.00000  Uiso   1.00
C73    C     0.17498   0.51168   0.08424   0.00000  Uiso   1.00
C74    C     0.16335   0.69982   0.05707   0.00000  Uiso   1.00
C75    C     0.06694   0.57798   0.44859   0.00000  Uiso   1.00
O76    O     0.13987   0.53423   0.32512   0.00000  Uiso   1.00
C77    C     0.25991   0.67530   0.42034   0.00000  Uiso   1.00
C78    C     0.13769   0.83478   0.23143   0.00000  Uiso   1.00
O79    O     0.15772   0.71001   0.32655   0.00000  Uiso   1.00
O80    O     0.23981   0.90272   0.36031   0.00000  Uiso   1.00
C81    C    -0.24455   0.53033   0.94006   0.00000  Uiso   1.00
C82    C    -0.05662   0.70459   0.92006   0.00000  Uiso   1.00
C83    C     0.14445   1.08198   0.88566   0.00000  Uiso   1.00
C84    C     0.82776   0.58250   0.77992   0.00000  Uiso   1.00
C85    C     0.11331   0.82740   0.65766   0.00000  Uiso   1.00
C86    C     0.08413   0.72491   0.80128   0.00000  Uiso   1.00
O87    O     0.13598   0.92149   0.80719   0.00000  Uiso   1.00
C88    C     0.26438   0.89857   0.74985   0.00000  Uiso   1.00
C89    C     0.54475   0.01654   0.17604   0.00000  Uiso   1.00
C90    C     0.42732   0.01412   0.06893   0.00000  Uiso   1.00
C91    C     0.66709   0.17354  -0.02565   0.00000  Uiso   1.00
C92    C     0.54079   0.19286   0.88508   0.00000  Uiso   1.00
C93    C     0.75051   0.32921   0.86087   0.00000  Uiso   1.00
C94    C     0.36768   0.91292   0.50231   0.00000  Uiso   1.00
O95    O     0.27513   0.01813   0.48624   0.00000  Uiso   1.00
C96    C     0.36923   0.22170   0.52263   0.00000  Uiso   1.00
O97    O     0.19837   0.07777   0.58426   0.00000  Uiso   1.00
C98    C     0.37025   0.07233   0.23908   0.00000  Uiso   1.00
O99    O     0.41296   0.04737   0.38213   0.00000  Uiso   1.00
C100   C     0.41836   0.22017   0.34577   0.00000  Uiso   1.00
C101   C     0.56739   0.19566   0.30938   0.00000  Uiso   1.00
C102   C     0.61345   0.10746   0.76052   0.00000  Uiso   1.00
O103   O     0.34385   0.07921   0.62070   0.00000  Uiso   1.00
O104   O     0.45251   0.07255   0.72053   0.00000  Uiso   1.00
C105   C     0.49640   0.28058   0.05338   0.00000  Uiso   1.00
O106   O     0.66088   0.34160  -0.00874   0.00000  Uiso   1.00
C107   C     0.63443   0.27613   0.13709   0.00000  Uiso   1.00
O108   O     0.30587   0.40477   0.18398   0.00000  Uiso   1.00
O109   O     0.23025   0.48004   0.24905   0.00000  Uiso   1.00
C110   C     0.65525   0.46811   0.10650   0.00000  Uiso   1.00
C111   C     0.42445   0.42890   0.02675   0.00000  Uiso   1.00
C112   C     0.59338   0.58395   0.95673   0.00000  Uiso   1.00
O113   O     0.26623   0.41476   0.49787   0.00000  Uiso   1.00
O114   O     0.26684   0.55450   0.56774   0.00000  Uiso   1.00
O115   O     0.38379   0.54209   0.29023   0.00000  Uiso   1.00
C116   C     0.44330   0.44929   0.38194   0.00000  Uiso   1.00
C117   C     0.55503   0.56914   0.25815   0.00000  Uiso   1.00
C118   C     0.53868   0.39220   0.81253   0.00000  Uiso   1.00
O119   O     0.45172   0.24168   0.70111   0.00000  Uiso   1.00
C120   C     0.60764   0.41628   0.65940   0.00000  Uiso   1.00
C121   C     0.33205   0.42582   0.84169   0.00000  Uiso   1.00
O122   O     0.43954   0.58268   0.95011   0.00000  Uiso   1.00
C123   C     0.27704   0.55159   0.91446   0.00000  Uiso   1.00
O124   O     0.37799   0.51029   0.61872   0.00000  Uiso   1.00
O125   O     0.44920   0.41603   0.69301   0.00000  Uiso   1.00
C126   C     0.54187   0.54657   0.58110   0.00000  Uiso   1.00
O127   O     0.37416   0.59427   0.15581   0.00000  Uiso   1.00
O128   O     0.50404   0.61692   0.08026   0.00000  Uiso   1.00
O129   O     0.25059   0.68084   0.17894   0.00000  Uiso   1.00
O130   O     0.39578   0.84110   0.13525   0.00000  Uiso   1.00
O131   O     0.29536   0.84598   0.24587   0.00000  Uiso   1.00
O132   O     0.47715   0.73969   0.04679   0.00000  Uiso   1.00
O133   O     0.53136   0.92567   0.03652   0.00000  Uiso   1.00
O134   O     0.42044   0.61834   0.49484   0.00000  Uiso   1.00
O135   O     0.52017   0.65941   0.38035   0.00000  Uiso   1.00
O136   O     0.39308   0.78042   0.27203   0.00000  Uiso   1.00
O137   O     0.44933   0.75657   0.39486   0.00000  Uiso   1.00
O138   O     0.47571   0.94132   0.37482   0.00000  Uiso   1.00
O139   O     0.42904   0.63864   0.81700   0.00000  Uiso   1.00
O140   O     0.52032   0.61819   0.71638   0.00000  Uiso   1.00
C141   C     0.32999   0.74219   0.80140   0.00000  Uiso   1.00
O142   O     0.46231   0.81384   0.91682   0.00000  Uiso   1.00
O143   O     0.46324   0.94991   0.82689   0.00000  Uiso   1.00
C144   C     0.32795   0.85334   0.93682   0.00000  Uiso   1.00
C145   C     0.41691   0.75512   0.61905   0.00000  Uiso   1.00
O146   O     0.52862   0.80058   0.73370   0.00000  Uiso   1.00
O147   O     0.49263   0.93520   0.68583   0.00000  Uiso   1.00
C148   C     0.75414   0.09397   0.08869   0.00000  Uiso   1.00
C149   C     0.74673   0.13542   0.25668   0.00000  Uiso   1.00
C150   C     0.82207   0.14252   0.42988   0.00000  Uiso   1.00
O151   O     0.92633   0.06943   0.48905   0.00000  Uiso   1.00
O152   O     0.53347   0.08350   0.47433   0.00000  Uiso   1.00
C153   C     0.63011   0.29352   0.47899   0.00000  Uiso   1.00
O154   O     0.51254   0.18002   0.59431   0.00000  Uiso   1.00
O155   O     0.91192   0.08749   0.85384   0.00000  Uiso   1.00
O156   O     0.98028   0.16457   0.61851   0.00000  Uiso   1.00
C157   C     0.67700   0.18956   0.57603   0.00000  Uiso   1.00
C158   C     0.84647   0.19653   0.62154   0.00000  Uiso   1.00
O159   O     0.84812   0.07406   0.72403   0.00000  Uiso   1.00
C160   C     0.99313   0.27990   0.73813   0.00000  Uiso   1.00
C161   C     0.93821   0.63221   0.28025   0.00000  Uiso   1.00
C162   C     0.73624   0.51324   0.31130   0.00000  Uiso   1.00
C163   C     0.84763   0.41853   0.30492   0.00000  Uiso   1.00
C164   C     0.76951   0.81715   0.12569   0.00000  Uiso   1.00
C165   C     0.86988   0.71983   0.15207   0.00000  Uiso   1.00
C166   C     0.97309   0.93638   0.09995   0.00000  Uiso   1.00
O167   O     0.54250   0.74658   0.18521   0.00000  Uiso   1.00
O168   O     0.67558   0.93687   0.18906   0.00000  Uiso   1.00
O169   O     0.55889   0.87535   0.29383   0.00000  Uiso   1.00
O170   O     0.79954   0.70706   0.88186   0.00000  Uiso   1.00
O171   O     0.83503   0.77301   0.01637   0.00000  Uiso   1.00
C172   C     0.92584   0.90625  -0.09335   0.00000  Uiso   1.00
C173   C     0.87441   1.09268   0.19564   0.00000  Uiso   1.00
C174   C     0.71549   0.53931   0.49625   0.00000  Uiso   1.00
O175   O     0.86170   0.54439   0.41946   0.00000  Uiso   1.00
C176   C     0.83848   0.49587   0.56864   0.00000  Uiso   1.00
O177   O     0.58303   0.80575   0.48095   0.00000  Uiso   1.00
O178   O     0.74849   0.97232   0.52429   0.00000  Uiso   1.00
O179   O     0.59828   0.90163   0.60588   0.00000  Uiso   1.00
C180   C     0.84957   0.86979   0.29948   0.00000  Uiso   1.00
O181   O     0.66655   0.81970   0.29220   0.00000  Uiso   1.00
C182   C     0.90063   0.70034   0.52581   0.00000  Uiso   1.00
C183   C     0.71230   0.74471   0.40880   0.00000  Uiso   1.00
O184   O     0.79480   0.96212   0.38616   0.00000  Uiso   1.00
O185   O     0.60372   0.74697   0.83395   0.00000  Uiso   1.00
O186   O     0.73405   0.80755   0.93176   0.00000  Uiso   1.00
O187   O     0.73819   0.93856   0.83648   0.00000  Uiso   1.00
O188   O     0.62391   0.86299   0.95523   0.00000  Uiso   1.00
C189   C     0.95108   0.84204   0.71083   0.00000  Uiso   1.00
C190   C     0.66520   0.78920   0.60293   0.00000  Uiso   1.00
C191   C     0.87764   0.91465   0.61004   0.00000  Uiso   1.00
C192   C     0.75356   0.73227   0.71106   0.00000  Uiso   1.00
O193   O     0.86003   0.93457   0.76639   0.00000  Uiso   1.00
H194   H     0.15740   0.00604   0.32184   0.00000  Uiso   1.00
H195   H     0.16983   0.07379   0.41100   0.00000  Uiso   1.00
H196   H     0.07405  -0.05400   0.39956   0.00000  Uiso   1.00
H197   H     0.13657   0.77817   0.48511   0.00000  Uiso   1.00
H198   H     0.05024   0.76615   0.43210   0.00000  Uiso   1.00
H199   H     0.08814   0.84497   0.51829   0.00000  Uiso   1.00
H200   H     0.20005  -0.02373   1.01049   0.00000  Uiso   1.00
H201   H     0.16783  -0.13489   0.95167   0.00000  Uiso   1.00
H202   H     0.08331  -0.10506   0.98284   0.00000  Uiso   1.00
H203   H    -0.05755   0.16899   1.04955   0.00000  Uiso   1.00
H204   H     0.00043   0.11187   1.01248   0.00000  Uiso   1.00
H205   H    -0.11401   0.03640   1.01531   0.00000  Uiso   1.00
H206   H     0.08452   0.33019   0.85936   0.00000  Uiso   1.00
H207   H     0.11394   0.25465   0.90122   0.00000  Uiso   1.00
H208   H     0.09103   0.32985   0.95744   0.00000  Uiso   1.00
H209   H     0.87958   0.26551   0.88125   0.00000  Uiso   1.00
H210   H     0.88173   0.26451   0.97413   0.00000  Uiso   1.00
H211   H     0.79837   0.14680   0.92772   0.00000  Uiso   1.00
H212   H     0.33419   0.14722   0.90359   0.00000  Uiso   1.00
H213   H     0.32838   0.13024   0.80736   0.00000  Uiso   1.00
H214   H     0.34875   0.05256   0.86898   0.00000  Uiso   1.00
H215   H     0.13958   0.08033   0.73544   0.00000  Uiso   1.00
H216   H     0.03285   0.05607   0.71048   0.00000  Uiso   1.00
H217   H     0.12502   0.18145   0.72684   0.00000  Uiso   1.00
H218   H     0.28027   0.30050   0.57147   0.00000  Uiso   1.00
H219   H     0.27760   0.27519   0.66876   0.00000  Uiso   1.00
H220   H     0.20542   0.30865   0.63861   0.00000  Uiso   1.00
H221   H     0.17128   0.16725   0.26535   0.00000  Uiso   1.00
H222   H     0.08366   0.15006   0.20106   0.00000  Uiso   1.00
H223   H     0.12747   0.25174   0.26784   0.00000  Uiso   1.00
H224   H     0.24662   0.15121   0.14547   0.00000  Uiso   1.00
H225   H     0.33548   0.23974   0.19988   0.00000  Uiso   1.00
H226   H     0.32760   0.24855   0.09952   0.00000  Uiso   1.00
H227   H     0.12474   0.28164   0.09662   0.00000  Uiso   1.00
H228   H     0.14432   0.19760   0.05623   0.00000  Uiso   1.00
H229   H     0.21945   0.33044   0.03349   0.00000  Uiso   1.00
H230   H     0.13312   0.18224   0.38276   0.00000  Uiso   1.00
H231   H     0.22219   0.23039   0.43741   0.00000  Uiso   1.00
H232   H     0.24880   0.29310   0.35841   0.00000  Uiso   1.00
H233   H     0.04218   0.32028   0.21768   0.00000  Uiso   1.00
H234   H    -0.01646   0.34301   0.28411   0.00000  Uiso   1.00
H235   H     0.02105   0.27057   0.30781   0.00000  Uiso   1.00
H236   H     0.06632   0.36132   0.59037   0.00000  Uiso   1.00
H237   H     0.09919   0.44607   0.51263   0.00000  Uiso   1.00
H238   H     0.02150   0.43587   0.58069   0.00000  Uiso   1.00
H239   H     0.19855   0.41609   0.69993   0.00000  Uiso   1.00
H240   H     0.16512   0.48388   0.75651   0.00000  Uiso   1.00
H241   H     0.27943   0.54527   0.71909   0.00000  Uiso   1.00
H242   H     0.19152   0.64822   0.69533   0.00000  Uiso   1.00
H243   H     0.10268   0.60771   0.62027   0.00000  Uiso   1.00
H244   H     0.22034   0.69612   0.60206   0.00000  Uiso   1.00
H245   H     0.03493   0.46399   0.17269   0.00000  Uiso   1.00
H246   H     0.01020   0.53724   0.12054   0.00000  Uiso   1.00
H247   H     0.05273   0.57248   0.21769   0.00000  Uiso   1.00
H248   H     0.24898   0.54566   0.07279   0.00000  Uiso   1.00
H249   H     0.13637   0.48714   0.03186   0.00000  Uiso   1.00
H250   H     0.14808   0.44226   0.11982   0.00000  Uiso   1.00
H251   H     0.18350   0.69328   0.00035   0.00000  Uiso   1.00
H252   H     0.21205   0.77520   0.08028   0.00000  Uiso   1.00
H253   H     0.09495   0.68598   0.05482   0.00000  Uiso   1.00
H254   H     0.10818   0.59928   0.49664   0.00000  Uiso   1.00
H255   H     0.01746   0.49793   0.44394   0.00000  Uiso   1.00
H256   H     0.02517   0.60409   0.45133   0.00000  Uiso   1.00
H257   H     0.30599   0.75846   0.41639   0.00000  Uiso   1.00
H258   H     0.28656   0.63942   0.39057   0.00000  Uiso   1.00
H259   H     0.24973   0.66487   0.48039   0.00000  Uiso   1.00
H260   H     0.11394   0.77151   0.18847   0.00000  Uiso   1.00
H261   H     0.17478   0.90327   0.19915   0.00000  Uiso   1.00
H262   H     0.08888   0.84039   0.26385   0.00000  Uiso   1.00
H263   H    -0.21404   0.49070   0.95200   0.00000  Uiso   1.00
H264   H    -0.31379   0.48059   0.91981   0.00000  Uiso   1.00
H265   H    -0.24202   0.56782   0.99297   0.00000  Uiso   1.00
H266   H    -0.06592   0.71106   0.98097   0.00000  Uiso   1.00
H267   H    -0.01293   0.77419   0.88545   0.00000  Uiso   1.00
H268   H    -0.03339   0.65276   0.91598   0.00000  Uiso   1.00
H269   H     0.08873   1.06113   0.84908   0.00000  Uiso   1.00
H270   H     0.20111   1.16643   0.87745   0.00000  Uiso   1.00
H271   H     0.12454   1.07223   0.94187   0.00000  Uiso   1.00
H272   H     0.86055   0.54257   0.78284   0.00000  Uiso   1.00
H273   H     0.86655   0.64610   0.74164   0.00000  Uiso   1.00
H274   H     0.75885   0.53236   0.76338   0.00000  Uiso   1.00
H275   H     0.03870   0.76072   0.65257   0.00000  Uiso   1.00
H276   H     0.15402   0.81712   0.62180   0.00000  Uiso   1.00
H277   H     0.13589   0.90384   0.64478   0.00000  Uiso   1.00
H278   H     0.11112   0.73288   0.85998   0.00000  Uiso   1.00
H279   H     0.10834   0.68612   0.76947   0.00000  Uiso   1.00
H280   H     0.01223   0.68529   0.79794   0.00000  Uiso   1.00
H281   H     0.29773   0.97922   0.74978   0.00000  Uiso   1.00
H282   H     0.28421   0.87873   0.70033   0.00000  Uiso   1.00
H283   H     0.28443   0.88484   0.80451   0.00000  Uiso   1.00
H284   H     0.60179   0.08845   0.15503   0.00000  Uiso   1.00
H285   H     0.57061  -0.02693   0.19378   0.00000  Uiso   1.00
H286   H     0.49510   0.01155   0.21907   0.00000  Uiso   1.00
H287   H     0.35269  -0.04075   0.06208   0.00000  Uiso   1.00
H288   H     0.46196   0.05136   0.01571   0.00000  Uiso   1.00
H289   H     0.44358   0.07391   0.10888   0.00000  Uiso   1.00
H290   H     0.73326   0.21294   0.00164   0.00000  Uiso   1.00
H291   H     0.65381   0.12101  -0.07132   0.00000  Uiso   1.00
H292   H     0.61251   0.12980   0.01720   0.00000  Uiso   1.00
H293   H     0.52472   0.11464   0.88549   0.00000  Uiso   1.00
H294   H     0.54926   0.22799   0.82967   0.00000  Uiso   1.00
H295   H     0.49491   0.20252   0.91718   0.00000  Uiso   1.00
H296   H     0.76291   0.27779   0.82850   0.00000  Uiso   1.00
H297   H     0.81568   0.38373   0.88909   0.00000  Uiso   1.00
H298   H     0.73205   0.36529   0.82088   0.00000  Uiso   1.00
H299   H     0.38116   0.85510   0.51235   0.00000  Uiso   1.00
H300   H     0.29808   0.87306   0.49071   0.00000  Uiso   1.00
H301   H     0.38870   0.96167   0.55053   0.00000  Uiso   1.00
H302   H     0.34559   0.24604   0.47801   0.00000  Uiso   1.00
H303   H     0.43409   0.23177   0.51390   0.00000  Uiso   1.00
H304   H     0.38122   0.27089   0.57186   0.00000  Uiso   1.00
H305   H     0.37415   0.00840   0.22041   0.00000  Uiso   1.00
H306   H     0.39437   0.13240   0.19492   0.00000  Uiso   1.00
H307   H     0.30557   0.05640   0.25494   0.00000  Uiso   1.00
H308   H     0.46117   0.27069   0.39023   0.00000  Uiso   1.00
H309   H     0.34211   0.16600   0.35714   0.00000  Uiso   1.00
H310   H     0.42662   0.26455   0.29787   0.00000  Uiso   1.00
H311   H     0.58984   0.27346   0.29398   0.00000  Uiso   1.00
H312   H     0.58348   0.16355   0.26127   0.00000  Uiso   1.00
H313   H     0.59565   0.18993   0.36133   0.00000  Uiso   1.00
H314   H     0.65277   0.08773   0.72810   0.00000  Uiso   1.00
H315   H     0.63166   0.11189   0.81831   0.00000  Uiso   1.00
H316   H     0.62510   0.17899   0.74207   0.00000  Uiso   1.00
H317   H     0.46318   0.20064   0.04049   0.00000  Uiso   1.00
H318   H     0.49401   0.32369   0.00968   0.00000  Uiso   1.00
H319   H     0.46071   0.28067   0.10251   0.00000  Uiso   1.00
H320   H     0.67800   0.25323   0.11405   0.00000  Uiso   1.00
H321   H     0.56750   0.20369   0.15101   0.00000  Uiso   1.00
H322   H     0.66569   0.32623   0.18726   0.00000  Uiso   1.00
H323   H     0.64192   0.50542   0.06702   0.00000  Uiso   1.00
H324   H     0.73029   0.51410   0.10826   0.00000  Uiso   1.00
H325   H     0.61794   0.46013   0.15866   0.00000  Uiso   1.00
H326   H     0.41227   0.37556  -0.01840   0.00000  Uiso   1.00
H327   H     0.36238   0.42031   0.03210   0.00000  Uiso   1.00
H328   H     0.44233   0.41365   0.07717   0.00000  Uiso   1.00
H329   H     0.60218   0.61669   0.90282   0.00000  Uiso   1.00
H330   H     0.58983   0.51134   0.95671   0.00000  Uiso   1.00
H331   H     0.65253   0.63443   0.99591   0.00000  Uiso   1.00
H332   H     0.51023   0.47422   0.39931   0.00000  Uiso   1.00
H333   H     0.42515   0.38271   0.35004   0.00000  Uiso   1.00
H334   H     0.40480   0.43475   0.43315   0.00000  Uiso   1.00
H335   H     0.61168   0.64796   0.25088   0.00000  Uiso   1.00
H336   H     0.51487   0.53461   0.20734   0.00000  Uiso   1.00
H337   H     0.58067   0.52547   0.27497   0.00000  Uiso   1.00
H338   H     0.60306   0.39587   0.81791   0.00000  Uiso   1.00
H339   H     0.47886   0.33478   0.84774   0.00000  Uiso   1.00
H340   H     0.55259   0.46438   0.82690   0.00000  Uiso   1.00
H341   H     0.65922   0.49309   0.67412   0.00000  Uiso   1.00
H342   H     0.58914   0.40376   0.60291   0.00000  Uiso   1.00
H343   H     0.63071   0.36868   0.67032   0.00000  Uiso   1.00
H344   H     0.37868   0.41453   0.82001   0.00000  Uiso   1.00
H345   H     0.28447   0.41199   0.79742   0.00000  Uiso   1.00
H346   H     0.28970   0.37168   0.88972   0.00000  Uiso   1.00
H347   H     0.23370   0.48552   0.95068   0.00000  Uiso   1.00
H348   H     0.23304   0.54219   0.86785   0.00000  Uiso   1.00
H349   H     0.29391   0.62460   0.94388   0.00000  Uiso   1.00
H350   H     0.54527   0.60187   0.54426   0.00000  Uiso   1.00
H351   H     0.52048   0.47214   0.55686   0.00000  Uiso   1.00
H352   H     0.60970   0.59303   0.60405   0.00000  Uiso   1.00
H353   H     0.37725   0.72762   0.77364   0.00000  Uiso   1.00
H354   H     0.31521   0.77477   0.76011   0.00000  Uiso   1.00
H355   H     0.26604   0.68689   0.83123   0.00000  Uiso   1.00
H356   H     0.32754   0.82670   0.99185   0.00000  Uiso   1.00
H357   H     0.26290   0.81126   0.91380   0.00000  Uiso   1.00
H358   H     0.36032   0.93959   0.94084   0.00000  Uiso   1.00
H359   H     0.35997   0.75179   0.63784   0.00000  Uiso   1.00
H360   H     0.41042   0.68249   0.63514   0.00000  Uiso   1.00
H361   H     0.42328   0.76999   0.56015   0.00000  Uiso   1.00
H362   H     0.77733   0.05867   0.04816   0.00000  Uiso   1.00
H363   H     0.79907   0.17373   0.08389   0.00000  Uiso   1.00
H364   H     0.68457   0.07345   0.07475   0.00000  Uiso   1.00
H365   H     0.72058   0.17385   0.23128   0.00000  Uiso   1.00
H366   H     0.81221   0.19064   0.28068   0.00000  Uiso   1.00
H367   H     0.69577   0.08399   0.30026   0.00000  Uiso   1.00
H368   H     0.86489   0.20515   0.46210   0.00000  Uiso   1.00
H369   H     0.75274   0.12198   0.43287   0.00000  Uiso   1.00
H370   H     0.84109   0.15699   0.37474   0.00000  Uiso   1.00
H371   H     0.58541   0.30437   0.44881   0.00000  Uiso   1.00
H372   H     0.68004   0.30035   0.44117   0.00000  Uiso   1.00
H373   H     0.65019   0.34227   0.53026   0.00000  Uiso   1.00
H374   H     0.71079   0.26028   0.61078   0.00000  Uiso   1.00
H375   H     0.72693   0.20286   0.53013   0.00000  Uiso   1.00
H376   H     0.65136   0.11499   0.60594   0.00000  Uiso   1.00
H377   H     0.80154   0.13273   0.58642   0.00000  Uiso   1.00
H378   H     0.89105   0.25685   0.58484   0.00000  Uiso   1.00
H379   H     0.81180   0.21471   0.66721   0.00000  Uiso   1.00
H380   H     1.05504   0.28250   0.74426   0.00000  Uiso   1.00
H381   H     0.95374   0.25868   0.78944   0.00000  Uiso   1.00
H382   H     1.00648   0.35000   0.71484   0.00000  Uiso   1.00
H383   H     0.99830   0.64318   0.30465   0.00000  Uiso   1.00
H384   H     0.93746   0.70013   0.29027   0.00000  Uiso   1.00
H385   H     0.94046   0.61062   0.22259   0.00000  Uiso   1.00
H386   H     0.67541   0.45035   0.34152   0.00000  Uiso   1.00
H387   H     0.72165   0.50758   0.25110   0.00000  Uiso   1.00
H388   H     0.74506   0.58408   0.33466   0.00000  Uiso   1.00
H389   H     0.86249   0.39224   0.35563   0.00000  Uiso   1.00
H390   H     0.89312   0.44116   0.25645   0.00000  Uiso   1.00
H391   H     0.77795   0.35936   0.28582   0.00000  Uiso   1.00
H392   H     0.78152   0.86650   0.17347   0.00000  Uiso   1.00
H393   H     0.70859   0.74275   0.13778   0.00000  Uiso   1.00
H394   H     0.75539   0.84935   0.07743   0.00000  Uiso   1.00
H395   H     0.91617   0.76316   0.19648   0.00000  Uiso   1.00
H396   H     0.89265   0.67529   0.12297   0.00000  Uiso   1.00
H397   H     0.80350   0.66445   0.17394   0.00000  Uiso   1.00
H398   H     1.03006   0.93571   0.12370   0.00000  Uiso   1.00
H399   H     0.96760   0.98580   0.13722   0.00000  Uiso   1.00
H400   H     1.00265   0.97824   0.04693   0.00000  Uiso   1.00
H401   H     0.93777   0.91444  -0.15317   0.00000  Uiso   1.00
H402   H     0.98249   0.90796  -0.07078   0.00000  Uiso   1.00
H403   H     0.92861   0.97165  -0.07461   0.00000  Uiso   1.00
H404   H     0.88341   1.07399   0.25204   0.00000  Uiso   1.00
H405   H     0.92197   1.17218   0.19354   0.00000  Uiso   1.00
H406   H     0.88756   1.04961   0.15282   0.00000  Uiso   1.00
H407   H     0.70988   0.59029   0.46431   0.00000  Uiso   1.00
H408   H     0.70192   0.54767   0.55061   0.00000  Uiso   1.00
H409   H     0.66236   0.46525   0.47202   0.00000  Uiso   1.00
H410   H     0.82928   0.52197   0.62396   0.00000  Uiso   1.00
H411   H     0.90413   0.50306   0.56712   0.00000  Uiso   1.00
H412   H     0.78274   0.41114   0.56684   0.00000  Uiso   1.00
H413   H     0.87878   0.92199   0.25169   0.00000  Uiso   1.00
H414   H     0.84498   0.80027   0.28360   0.00000  Uiso   1.00
H415   H     0.89839   0.90591   0.34208   0.00000  Uiso   1.00
H416   H     0.92141   0.75044   0.47398   0.00000  Uiso   1.00
H417   H     0.95323   0.71271   0.56093   0.00000  Uiso   1.00
H418   H     0.85494   0.71299   0.56167   0.00000  Uiso   1.00
H419   H     0.67873   0.67609   0.37355   0.00000  Uiso   1.00
H420   H     0.66340   0.73524   0.45146   0.00000  Uiso   1.00
H421   H     0.76974   0.75530   0.44321   0.00000  Uiso   1.00
H422   H     1.02076   0.90773   0.70543   0.00000  Uiso   1.00
H423   H     0.93955   0.78667   0.67292   0.00000  Uiso   1.00
H424   H     0.95295   0.82172   0.76840   0.00000  Uiso   1.00
H425   H     0.69518   0.75585   0.57381   0.00000  Uiso   1.00
H426   H     0.59674   0.73575   0.62475   0.00000  Uiso   1.00
H427   H     0.70981   0.84012   0.64585   0.00000  Uiso   1.00
H428   H     0.85043   0.96021   0.61282   0.00000  Uiso   1.00
H429   H     0.85147   0.85552   0.56692   0.00000  Uiso   1.00
H430   H     0.95032   0.97056   0.60730   0.00000  Uiso   1.00
H431   H     0.74592   0.69765   0.65468   0.00000  Uiso   1.00
H432   H     0.69662   0.73506   0.72443   0.00000  Uiso   1.00
H433   H     0.75321   0.67719   0.75069   0.00000  Uiso   1.00
loop_
_geom_bond_atom_site_label_1
_geom_bond_atom_site_label_2
_geom_bond_distance
_geom_bond_site_symmetry_2
_ccdc_geom_bond_type
Si1    C52     1.896   .     S
Si1    O95     1.653   .     S
Si1    C53     1.842   1_545 S
Si1    O80     1.581   1_545 S
Si2    O58     1.599   .     S
Si2    O65     1.705   .     S
Si2    O151    1.656   1_455 S
Si2    O156    1.606   1_455 S
Si3    C54     1.853   .     S
Si3    C59     1.917   .     S
Si3    C83     1.865   1_545 S
Si3    O87     1.597   1_545 S
Si4    C55     1.835   .     S
Si4    C56     1.876   .     S
Si4    C57     1.866   1_455 S
Si4    O155    1.613   1_455 S
Si5    O58     1.596   .     S
Si5    C60     1.878   .     S
Si5    C61     1.820   .     S
Si5    O97     1.600   .     S
Si6    C62     1.881   .     S
Si6    C63     1.834   .     S
Si6    C64     1.853   .     S
Si6    O108    1.600   .     S
Si7    O65     1.640   .     S
Si7    C66     1.800   .     S
Si7    O68     1.591   .     S
Si7    O113    1.633   .     S
Si8    C67     1.897   .     S
Si8    O68     1.625   .     S
Si8    O76     1.608   .     S
Si8    O109    1.608   .     S
Si9    C69     1.835   .     S
Si9    C70     1.873   .     S
Si9    C71     1.891   .     S
Si9    O114    1.555   .     S
Si10   C72     1.832   .     S
Si10   C73     1.891   .     S
Si10   C74     1.859   .     S
Si10   O129    1.607   .     S
Si11   C75     1.842   .     S
Si11   O76     1.611   .     S
Si11   C77     1.787   .     S
Si11   O79     1.624   .     S
Si12   C78     1.828   .     S
Si12   O79     1.649   .     S
Si12   O80     1.589   .     S
Si12   O131    1.599   .     S
Si13   C81     1.801   .     S
Si13   C82     1.878   .     S
Si13   C84     1.915   1_455 S
Si13   O170    1.581   1_455 S
Si14   C85     1.858   .     S
Si14   C86     1.797   .     S
Si14   O87     1.625   .     S
Si14   C88     1.778   .     S
Si15   C89     1.791   .     S
Si15   C90     1.925   .     S
Si15   O130    1.516   1_545 S
Si15   O133    1.659   1_545 S
Si16   C91     1.843   .     S
Si16   O106    1.586   .     S
Si16   C92     1.874   1_554 S
Si16   C93     1.892   1_554 S
Si17   O99     1.535   .     S
Si17   O152    1.586   .     S
Si17   C94     1.871   1_545 S
Si17   O138    1.593   1_545 S
Si18   O95     1.592   .     S
Si18   C96     1.881   .     S
Si18   O97     1.628   .     S
Si18   O103    1.622   .     S
Si19   C98     1.850   .     S
Si19   O99     1.550   .     S
Si19   C100    1.843   .     S
Si19   C101    1.866   .     S
Si20   C102    1.836   .     S
Si20   O104    1.654   .     S
Si20   O143    1.645   1_545 S
Si20   O147    1.609   1_545 S
Si21   O103    1.638   .     S
Si21   O104    1.669   .     S
Si21   O119    1.646   .     S
Si21   O154    1.603   .     S
Si22   C105    1.826   .     S
Si22   O106    1.581   .     S
Si22   C107    1.814   .     S
Si22   C110    1.860   .     S
Si23   O108    1.576   .     S
Si23   O109    1.602   .     S
Si23   O115    1.578   .     S
Si23   O127    1.639   .     S
Si24   C111    1.769   .     S
Si24   O128    1.584   .     S
Si24   C112    1.841   1_554 S
Si24   O122    1.584   1_554 S
Si25   O113    1.651   .     S
Si25   O114    1.638   .     S
Si25   O124    1.668   .     S
Si25   O134    1.677   .     S
Si26   O115    1.619   .     S
Si26   C116    1.851   .     S
Si26   C117    1.873   .     S
Si26   O135    1.620   .     S
Si27   C118    1.856   .     S
Si27   O119    1.644   .     S
Si27   C120    1.813   .     S
Si27   O125    1.700   .     S
Si28   C121    1.909   .     S
Si28   O122    1.615   .     S
Si28   C123    1.853   .     S
Si28   O139    1.572   .     S
Si29   O124    1.654   .     S
Si29   O125    1.676   .     S
Si29   C126    1.841   .     S
Si29   O140    1.665   .     S
Si30   O127    1.638   .     S
Si30   O128    1.550   .     S
Si30   O132    1.644   .     S
Si30   O167    1.612   .     S
Si31   O129    1.615   .     S
Si31   O130    1.600   .     S
Si31   O131    1.612   .     S
Si31   O136    1.626   .     S
Si32   O132    1.666   .     S
Si32   O133    1.616   .     S
Si32   O142    1.652   1_554 S
Si32   O188    1.670   1_554 S
Si33   O134    1.640   .     S
Si33   O135    1.571   .     S
Si33   O137    1.642   .     S
Si33   O177    1.620   .     S
Si34   O136    1.616   .     S
Si34   O137    1.604   .     S
Si34   O138    1.698   .     S
Si34   O169    1.598   .     S
Si35   O139    1.624   .     S
Si35   O140    1.675   .     S
Si35   O146    1.671   .     S
Si35   O185    1.646   .     S
Si36   C141    1.855   .     S
Si36   O142    1.671   .     S
Si36   O143    1.610   .     S
Si36   C144    1.877   .     S
Si37   C145    1.801   .     S
Si37   O146    1.633   .     S
Si37   O147    1.637   .     S
Si37   O179    1.581   .     S
Si38   C148    1.859   .     S
Si38   C149    1.882   .     S
Si38   O168    1.631   1_545 S
Si38   C173    1.873   1_545 S
Si39   C150    1.915   .     S
Si39   O151    1.652   .     S
Si39   O178    1.628   1_545 S
Si39   O184    1.624   1_545 S
Si40   O152    1.645   .     S
Si40   C153    1.824   .     S
Si40   O154    1.625   .     S
Si40   C157    1.864   .     S
Si41   O155    1.607   .     S
Si41   O159    1.634   .     S
Si41   O187    1.623   1_545 S
Si41   O193    1.569   1_545 S
Si42   O156    1.591   .     S
Si42   C158    1.805   .     S
Si42   O159    1.645   .     S
Si42   C160    1.842   .     S
Si43   C161    1.848   .     S
Si43   C162    1.896   .     S
Si43   C163    1.866   .     S
Si43   O175    1.557   .     S
Si44   C164    1.849   .     S
Si44   C165    1.878   .     S
Si44   C166    1.821   .     S
Si44   O171    1.543   .     S
Si45   O167    1.671   .     S
Si45   O168    1.574   .     S
Si45   O169    1.620   .     S
Si45   O181    1.574   .     S
Si46   O171    1.604   .     S
Si46   C172    1.846   .     S
Si46   O170    1.572   1_554 S
Si46   O186    1.616   1_554 S
Si47   C174    1.878   .     S
Si47   O175    1.576   .     S
Si47   C176    1.823   .     S
Si47   C182    1.855   .     S
Si48   O177    1.605   .     S
Si48   O178    1.641   .     S
Si48   O179    1.615   .     S
Si48   C190    1.850   .     S
Si49   C180    1.806   .     S
Si49   O181    1.605   .     S
Si49   C183    1.910   .     S
Si49   O184    1.647   .     S
Si50   O185    1.653   .     S
Si50   O186    1.625   .     S
Si50   O187    1.660   .     S
Si50   O188    1.644   .     S
Si51   C189    1.878   .     S
Si51   C191    1.860   .     S
Si51   C192    1.853   .     S
Si51   O193    1.606   .     S
C52    H194    1.128   .     S
C52    H195    1.145   .     S
C52    H196    1.135   .     S
C53    H197    1.103   .     S
C53    H198    1.131   .     S
C53    H199    1.130   .     S
C53    Si1     1.842   1_565 S
C54    H200    1.163   .     S
C54    H201    1.159   .     S
C54    H202    1.121   .     S
C55    H203    1.152   .     S
C55    H204    1.140   .     S
C55    H205    1.090   .     S
C56    H206    1.107   .     S
C56    H207    1.156   .     S
C56    H208    1.100   .     S
C57    H209    1.076   .     S
C57    H210    1.090   .     S
C57    H211    1.136   .     S
C57    Si4     1.866   1_655 S
C59    H212    1.060   .     S
C59    H213    1.163   .     S
C59    H214    1.131   .     S
C60    H215    1.068   .     S
C60    H216    1.113   .     S
C60    H217    1.123   .     S
C61    H218    1.079   .     S
C61    H219    1.099   .     S
C61    H220    1.126   .     S
C62    H221    1.162   .     S
C62    H222    1.136   .     S
C62    H223    1.113   .     S
C63    H224    1.055   .     S
C63    H225    1.068   .     S
C63    H226    1.035   .     S
C64    H227    1.094   .     S
C64    H228    1.044   .     S
C64    H229    1.135   .     S
C66    H230    1.108   .     S
C66    H231    1.069   .     S
C66    H232    1.127   .     S
C67    H233    1.037   .     S
C67    H234    1.126   .     S
C67    H235    1.094   .     S
C69    H236    1.103   .     S
C69    H237    1.098   .     S
C69    H238    1.096   .     S
C70    H239    1.100   .     S
C70    H240    1.082   .     S
C70    H241    1.142   .     S
C71    H242    1.098   .     S
C71    H243    1.134   .     S
C71    H244    1.078   .     S
C72    H245    1.088   .     S
C72    H246    1.117   .     S
C72    H247    1.094   .     S
C73    H248    1.141   .     S
C73    H249    1.110   .     S
C73    H250    1.138   .     S
C74    H251    1.099   .     S
C74    H252    1.099   .     S
C74    H253    1.133   .     S
C75    H254    1.071   .     S
C75    H255    1.077   .     S
C75    H256    1.061   .     S
C77    H257    1.109   .     S
C77    H258    1.076   .     S
C77    H259    1.090   .     S
C78    H260    1.145   .     S
C78    H261    1.083   .     S
C78    H262    1.097   .     S
O80    Si1     1.581   1_565 S
C81    H263    1.089   .     S
C81    H264    1.102   .     S
C81    H265    1.106   .     S
C82    H266    1.116   .     S
C82    H267    1.126   .     S
C82    H268    1.136   .     S
C83    H269    1.097   .     S
C83    H270    1.158   .     S
C83    H271    1.049   .     S
C83    Si3     1.865   1_565 S
C84    H272    1.105   .     S
C84    H273    1.098   .     S
C84    H274    1.077   .     S
C84    Si13    1.915   1_655 S
C85    H275    1.157   .     S
C85    H276    1.052   .     S
C85    H277    1.086   .     S
C86    H278    1.147   .     S
C86    H279    1.099   .     S
C86    H280    1.080   .     S
O87    Si3     1.597   1_565 S
C88    H281    1.080   .     S
C88    H282    1.064   .     S
C88    H283    1.124   .     S
C89    H284    1.091   .     S
C89    H285    1.102   .     S
C89    H286    1.144   .     S
C90    H287    1.127   .     S
C90    H288    1.112   .     S
C90    H289    1.093   .     S
C91    H290    1.110   .     S
C91    H291    1.097   .     S
C91    H292    1.123   .     S
C92    H293    1.125   .     S
C92    H294    1.119   .     S
C92    H295    1.086   .     S
C92    Si16    1.874   1_556 S
C93    H296    1.129   .     S
C93    H297    1.119   .     S
C93    H298    1.106   .     S
C93    Si16    1.892   1_556 S
C94    H299    1.114   .     S
C94    H300    1.065   .     S
C94    H301    1.078   .     S
C94    Si17    1.871   1_565 S
C96    H302    1.098   .     S
C96    H303    1.103   .     S
C96    H304    1.117   .     S
C98    H305    1.122   .     S
C98    H306    1.137   .     S
C98    H307    1.083   .     S
C100   H308    1.089   .     S
C100   H309    1.156   .     S
C100   H310    1.084   .     S
C101   H311    1.118   .     S
C101   H312    1.118   .     S
C101   H313    1.106   .     S
C102   H314    1.091   .     S
C102   H315    1.085   .     S
C102   H316    1.108   .     S
C105   H317    1.093   .     S
C105   H318    1.078   .     S
C105   H319    1.085   .     S
C107   H320    1.120   .     S
C107   H321    1.133   .     S
C107   H322    1.123   .     S
C110   H323    1.058   .     S
C110   H324    1.120   .     S
C110   H325    1.110   .     S
C111   H326    1.103   .     S
C111   H327    1.058   .     S
C111   H328    1.049   .     S
C112   H329    1.077   .     S
C112   H330    1.140   .     S
C112   H331    1.151   .     S
C112   Si24    1.841   1_556 S
C116   H332    1.092   .     S
C116   H333    1.085   .     S
C116   H334    1.088   .     S
C117   H335    1.096   .     S
C117   H336    1.105   .     S
C117   H337    1.096   .     S
C118   H338    1.145   .     S
C118   H339    1.132   .     S
C118   H340    1.072   .     S
C120   H341    1.077   .     S
C120   H342    1.055   .     S
C120   H343    1.090   .     S
C121   H344    1.032   .     S
C121   H345    1.111   .     S
C121   H346    1.155   .     S
O122   Si24    1.584   1_556 S
C123   H347    1.108   .     S
C123   H348    1.118   .     S
C123   H349    1.158   .     S
C126   H350    1.096   .     S
C126   H351    1.116   .     S
C126   H352    1.098   .     S
O130   Si15    1.516   1_565 S
O133   Si15    1.659   1_565 S
O138   Si17    1.593   1_565 S
C141   H353    1.119   .     S
C141   H354    1.043   .     S
C141   H355    1.113   .     S
O142   Si32    1.652   1_556 S
O143   Si20    1.645   1_565 S
C144   H356    1.085   .     S
C144   H357    1.060   .     S
C144   H358    1.166   .     S
C145   H359    1.054   .     S
C145   H360    1.155   .     S
C145   H361    1.079   .     S
O147   Si20    1.609   1_565 S
C148   H362    1.132   .     S
C148   H363    1.066   .     S
C148   H364    1.142   .     S
C149   H365    1.087   .     S
C149   H366    1.092   .     S
C149   H367    1.129   .     S
C150   H368    1.031   .     S
C150   H369    1.105   .     S
C150   H370    1.028   .     S
O151   Si2     1.656   1_655 S
C153   H371    1.083   .     S
C153   H372    1.077   .     S
C153   H373    1.123   .     S
O155   Si4     1.613   1_655 S
O156   Si2     1.606   1_655 S
C157   H374    1.124   .     S
C157   H375    1.141   .     S
C157   H376    1.155   .     S
C158   H377    1.079   .     S
C158   H378    1.068   .     S
C158   H379    1.157   .     S
C160   H380    1.111   .     S
C160   H381    1.087   .     S
C160   H382    1.105   .     S
C161   H383    1.102   .     S
C161   H384    1.119   .     S
C161   H385    1.094   .     S
C162   H386    1.123   .     S
C162   H387    1.109   .     S
C162   H388    1.137   .     S
C163   H389    1.115   .     S
C163   H390    1.100   .     S
C163   H391    1.122   .     S
C164   H392    1.098   .     S
C164   H393    1.094   .     S
C164   H394    1.127   .     S
C165   H395    1.082   .     S
C165   H396    1.133   .     S
C165   H397    1.081   .     S
C166   H398    1.135   .     S
C166   H399    1.080   .     S
C166   H400    1.114   .     S
O168   Si38    1.631   1_565 S
O170   Si13    1.581   1_655 S
O170   Si46    1.572   1_556 S
C172   H401    1.087   .     S
C172   H402    1.101   .     S
C172   H403    1.079   .     S
C173   H404    1.105   .     S
C173   H405    1.064   .     S
C173   H406    1.139   .     S
C173   Si38    1.873   1_565 S
C174   H407    1.067   .     S
C174   H408    1.028   .     S
C174   H409    1.110   .     S
C176   H410    1.119   .     S
C176   H411    1.131   .     S
C176   H412    1.148   .     S
O178   Si39    1.628   1_565 S
C180   H413    1.108   .     S
C180   H414    1.112   .     S
C180   H415    1.065   .     S
C182   H416    1.153   .     S
C182   H417    1.075   .     S
C182   H418    1.147   .     S
C183   H419    1.105   .     S
C183   H420    1.105   .     S
C183   H421    1.150   .     S
O184   Si39    1.624   1_565 S
O186   Si46    1.616   1_556 S
O187   Si41    1.623   1_565 S
O188   Si32    1.670   1_556 S
C189   H422    1.096   .     S
C189   H423    1.039   .     S
C189   H424    1.099   .     S
C190   H425    1.085   .     S
C190   H426    1.100   .     S
C190   H427    1.082   .     S
C191   H428    1.099   .     S
C191   H429    1.100   .     S
C191   H430    1.094   .     S
C192   H431    1.120   .     S
C192   H432    1.084   .     S
C192   H433    1.149   .     S
O193   Si41    1.569   1_565 S
