data_333-7-11-18-15-30-20
_audit_creation_date              2025-03-07
_audit_creation_method            'Materials Studio'
_symmetry_space_group_name_H-M    'P1'
_symmetry_Int_Tables_number       1
_symmetry_cell_setting            triclinic
loop_
_symmetry_equiv_pos_as_xyz
  x,y,z
_cell_length_a                    17.3343
_cell_length_b                    16.0277
_cell_length_c                    20.7650
_cell_angle_alpha                 86.6315
_cell_angle_beta                  86.5117
_cell_angle_gamma                 114.9638
loop_
_atom_site_label
_atom_site_type_symbol
_atom_site_fract_x
_atom_site_fract_y
_atom_site_fract_z
_atom_site_U_iso_or_equiv
_atom_site_adp_type
_atom_site_occupancy
Si1    Si    0.24774   0.07731   0.10592   0.00000  Uiso   1.00
Si2    Si    0.21658   0.22503   0.00604   0.00000  Uiso   1.00
Si3    Si    0.28344   0.17483   0.32068   0.00000  Uiso   1.00
Si4    Si    0.15951   0.03297   0.83965   0.00000  Uiso   1.00
Si5    Si    0.03789   0.18611   0.96857   0.00000  Uiso   1.00
Si6    Si    0.21190   0.37982   0.09352   0.00000  Uiso   1.00
Si7    Si    0.19594   0.56009   0.03966   0.00000  Uiso   1.00
Si8    Si    0.35158   0.25098   0.45248   0.00000  Uiso   1.00
Si9    Si    0.02348   0.45686   0.66669   0.00000  Uiso   1.00
Si10   Si    0.12192   0.33371   0.85140   0.00000  Uiso   1.00
Si11   Si    0.07671   0.48815   0.80402   0.00000  Uiso   1.00
Si12   Si    0.23152   0.73905   0.11603   0.00000  Uiso   1.00
Si13   Si    0.22118   0.90660   0.02913   0.00000  Uiso   1.00
Si14   Si    0.06707   0.90399   0.96333   0.00000  Uiso   1.00
Si15   Si    0.07908   0.89740   0.56721   0.00000  Uiso   1.00
Si16   Si    0.47173   0.01814   0.05446   0.00000  Uiso   1.00
Si17   Si    0.39112   0.19896   0.18828   0.00000  Uiso   1.00
Si18   Si    0.45112   0.14267  -0.05748   0.00000  Uiso   1.00
Si19   Si    0.53727   0.18779   0.26298   0.00000  Uiso   1.00
Si20   Si    0.31548   0.19693   0.88747   0.00000  Uiso   1.00
Si21   Si    0.51613   0.39717   0.13873   0.00000  Uiso   1.00
Si22   Si    0.32336   0.50666   0.17951   0.00000  Uiso   1.00
Si23   Si    0.50866   0.53688   0.03327   0.00000  Uiso   1.00
Si24   Si    0.79387   0.48514   0.45771   0.00000  Uiso   1.00
Si25   Si    0.26356   0.33852   0.54055   0.00000  Uiso   1.00
Si26   Si    0.42086   0.30015   0.76440   0.00000  Uiso   1.00
Si27   Si    0.37750   0.40062   0.65003   0.00000  Uiso   1.00
Si28   Si    0.46081   0.67767   0.09961   0.00000  Uiso   1.00
Si29   Si    0.36589   0.89582   0.17408   0.00000  Uiso   1.00
Si30   Si    0.46171   0.83850   0.00577   0.00000  Uiso   1.00
Si31   Si    0.30447   0.53571   0.47827   0.00000  Uiso   1.00
Si32   Si    0.23378   0.85465   0.53766   0.00000  Uiso   1.00
Si33   Si    0.44304   0.81967   0.26968   0.00000  Uiso   1.00
Si34   Si    0.32426   0.86045   0.92832   0.00000  Uiso   1.00
Si35   Si    0.42414   0.95579   0.56297   0.00000  Uiso   1.00
Si36   Si    0.72559   0.24048   0.23185   0.00000  Uiso   1.00
Si37   Si    0.91214   0.24288   0.04144   0.00000  Uiso   1.00
Si38   Si    0.79800   0.00941   0.58934   0.00000  Uiso   1.00
Si39   Si    0.88657   0.03472   0.91009   0.00000  Uiso   1.00
Si40   Si    0.58804   0.14560   0.84161   0.00000  Uiso   1.00
Si41   Si    0.86307   0.36905   0.12436   0.00000  Uiso   1.00
Si42   Si    0.62749   0.51728   0.23192   0.00000  Uiso   1.00
Si43   Si    0.82901   0.13792   0.46503   0.00000  Uiso   1.00
Si44   Si    0.96417   0.51785   0.38850   0.00000  Uiso   1.00
Si45   Si    0.74176   0.33558   0.80681   0.00000  Uiso   1.00
Si46   Si    0.56502   0.48066   0.78363   0.00000  Uiso   1.00
Si47   Si    0.58410   0.79334   0.19335   0.00000  Uiso   1.00
Si48   Si    0.93662   0.86829   0.07598   0.00000  Uiso   1.00
Si49   Si    0.72357   0.81485   0.28335   0.00000  Uiso   1.00
Si50   Si    0.71791   0.63216   0.69894   0.00000  Uiso   1.00
Si51   Si    0.55760   0.80177   0.88977   0.00000  Uiso   1.00
C52    C     0.14471   1.03120   0.16129   0.00000  Uiso   1.00
O53    O     0.24142   0.16053   0.05707   0.00000  Uiso   1.00
C54    C     0.18406   0.19047   0.32235   0.00000  Uiso   1.00
C55    C     0.24690   0.04860   0.34980   0.00000  Uiso   1.00
C56    C     0.09102   0.06428   0.78699   0.00000  Uiso   1.00
O57    O     0.11583   0.17550   0.99564   0.00000  Uiso   1.00
C58    C     0.13188   0.29318   0.15487   0.00000  Uiso   1.00
O59    O     0.23255   0.32360   0.03637   0.00000  Uiso   1.00
O60    O     0.17991   0.45806   0.07054   0.00000  Uiso   1.00
C61    C     0.09426   0.55245   1.00816   0.00000  Uiso   1.00
C62    C     0.27353   0.57764   0.97250   0.00000  Uiso   1.00
C63    C     0.46199   0.32587   0.46034   0.00000  Uiso   1.00
O64    O     0.33913   0.23319   0.37556   0.00000  Uiso   1.00
C65    C     0.31839   0.13823   0.50530   0.00000  Uiso   1.00
C66    C     0.12895   0.50418   0.61831   0.00000  Uiso   1.00
C67    C     0.97509   0.54500   0.65866   0.00000  Uiso   1.00
O68    O     0.07134   0.25037   0.90318   0.00000  Uiso   1.00
C69    C     0.11896   0.29839   0.76944   0.00000  Uiso   1.00
C70    C     0.23504   0.39323   0.86839   0.00000  Uiso   1.00
O71    O     0.03824   0.44245   0.73867   0.00000  Uiso   1.00
O72    O     0.08533   0.40730   0.85019   0.00000  Uiso   1.00
C73    C     0.00636   0.53638   0.84309   0.00000  Uiso   1.00
C74    C     0.15275   0.70346   0.18607   0.00000  Uiso   1.00
O75    O     0.23212   0.64621   0.08761   0.00000  Uiso   1.00
O76    O     0.21281   0.81308   0.06932   0.00000  Uiso   1.00
O77    O     0.25483   0.99754   0.06696   0.00000  Uiso   1.00
O78    O     0.13123   0.89373   1.00892   0.00000  Uiso   1.00
O79    O     0.11225   0.99083   0.91016   0.00000  Uiso   1.00
C80    C    -0.00717   0.78733   0.54333   0.00000  Uiso   1.00
C81    C     0.07157   0.91173   0.65544   0.00000  Uiso   1.00
C82    C     0.06966   0.99472   0.52599   0.00000  Uiso   1.00
C83    C     0.19705   0.95392   0.79939   0.00000  Uiso   1.00
O84    O     0.33243   0.12303   0.14345   0.00000  Uiso   1.00
O85    O     0.33675   0.20784   0.25071   0.00000  Uiso   1.00
O86    O     0.43155   0.05798  -0.00351   0.00000  Uiso   1.00
O87    O     0.46527   0.17228   0.21215   0.00000  Uiso   1.00
C88    C     0.52300   0.07618   0.29923   0.00000  Uiso   1.00
O89    O     0.24101   0.12930   0.84926   0.00000  Uiso   1.00
O90    O     0.36350   0.14092   0.92206   0.00000  Uiso   1.00
O91    O     0.27467   0.23931   0.93973   0.00000  Uiso   1.00
O92    O     0.43494   0.29742   0.14882   0.00000  Uiso   1.00
C93    C     0.51341   0.24778  -0.02030   0.00000  Uiso   1.00
C94    C     0.60965   0.38609   0.09899   0.00000  Uiso   1.00
O95    O     0.29233   0.43253   0.12944   0.00000  Uiso   1.00
C96    C     0.38342   0.48026   0.23989   0.00000  Uiso   1.00
C97    C     0.22285   0.50037   0.22831   0.00000  Uiso   1.00
O98    O     0.49061   0.47008   0.09814   0.00000  Uiso   1.00
C99    C     0.43737   0.46127   0.97612   0.00000  Uiso   1.00
C100   C     0.81001   0.46237   0.54086   0.00000  Uiso   1.00
C101   C     0.52581   0.25407   0.33121   0.00000  Uiso   1.00
C102   C     0.68514   0.40139   0.44682   0.00000  Uiso   1.00
C103   C     0.79330   0.60427   0.44286   0.00000  Uiso   1.00
O104   O     0.29459   0.30099   0.47943   0.00000  Uiso   1.00
C105   C     0.15085   0.25378   0.55929   0.00000  Uiso   1.00
C106   C     0.18615   0.58822   0.78181   0.00000  Uiso   1.00
O107   O     0.37527   0.27869   0.83592   0.00000  Uiso   1.00
C108   C     0.42524   0.19574   0.73844   0.00000  Uiso   1.00
O109   O     0.31287   0.33429   0.60151   0.00000  Uiso   1.00
O110   O     0.36704   0.33342   0.71393   0.00000  Uiso   1.00
C111   C     0.33631   0.48566   0.67309   0.00000  Uiso   1.00
O112   O     0.37460   0.60668   0.14312   0.00000  Uiso   1.00
O113   O     0.48112   0.61605   0.04854   0.00000  Uiso   1.00
O114   O     0.31787   0.80118   0.14336   0.00000  Uiso   1.00
O115   O     0.40123   0.97322   0.11714   0.00000  Uiso   1.00
C116   C     0.29147   0.92108   0.23054   0.00000  Uiso   1.00
O117   O     0.44702   0.75853   0.06534   0.00000  Uiso   1.00
O118   O     0.49947   0.93776   0.03101   0.00000  Uiso   1.00
O119   O     0.27220   0.43981   0.52288   0.00000  Uiso   1.00
C120   C     0.40090   0.54561   0.42362   0.00000  Uiso   1.00
C121   C     0.33974   0.63673   0.53001   0.00000  Uiso   1.00
C122   C     0.20097   0.76939   0.60955   0.00000  Uiso   1.00
C123   C     0.22282   0.80452   0.45582   0.00000  Uiso   1.00
O124   O     0.17037   0.90230   0.54410   0.00000  Uiso   1.00
O125   O     0.43849   0.88813   0.21334   0.00000  Uiso   1.00
C126   C     0.21961   0.53509   0.42936   0.00000  Uiso   1.00
C127   C     0.33877   0.71828   0.28672   0.00000  Uiso   1.00
C128   C     0.46397   0.86399   0.34887   0.00000  Uiso   1.00
C129   C     0.23327   0.75797   0.90722   0.00000  Uiso   1.00
O130   O     0.37423   0.82157   0.97676   0.00000  Uiso   1.00
C131   C     0.39221   0.92270   0.85079   0.00000  Uiso   1.00
O132   O     0.28180   0.91825   0.96386   0.00000  Uiso   1.00
O133   O     0.33102   0.92521   0.54177   0.00000  Uiso   1.00
C134   C     0.48702   1.07598   0.52985   0.00000  Uiso   1.00
C135   C     0.47149   0.88417   0.52464   0.00000  Uiso   1.00
C136   C     0.42768   0.94506   0.65234   0.00000  Uiso   1.00
C137   C     0.57105   0.11930   0.08108   0.00000  Uiso   1.00
C138   C     0.73097   0.12812   0.24763   0.00000  Uiso   1.00
C139   C     0.77268   0.29895   0.30288   0.00000  Uiso   1.00
O140   O     0.63286   0.23495   0.22835   0.00000  Uiso   1.00
O141   O     0.99952   0.23944   1.01524   0.00000  Uiso   1.00
C142   C     0.84321   0.13123   0.09632   0.00000  Uiso   1.00
C143   C     0.71801   0.03313   0.63687   0.00000  Uiso   1.00
C144   C     0.75027  -0.11331   0.56972   0.00000  Uiso   1.00
C145   C     0.88322   0.01360   0.64077   0.00000  Uiso   1.00
C146   C     0.88428   0.11470   0.84025   0.00000  Uiso   1.00
O147   O     0.96448   0.08976   0.95378   0.00000  Uiso   1.00
C148   C     0.89312   0.93150   0.87780   0.00000  Uiso   1.00
C149   C     0.58005   0.11121   0.75813   0.00000  Uiso   1.00
C150   C     0.63538   0.09536   0.89297   0.00000  Uiso   1.00
C151   C     0.85210   0.26119   0.97421   0.00000  Uiso   1.00
O152   O     0.49765   0.13021   0.87761   0.00000  Uiso   1.00
O153   O     0.77769   0.28969   0.16151   0.00000  Uiso   1.00
O154   O     0.92349   0.32587   0.08951   0.00000  Uiso   1.00
C155   C     0.84831   0.45057   0.06690   0.00000  Uiso   1.00
C156   C     0.92891   0.43219   0.18666   0.00000  Uiso   1.00
O157   O     0.54774   0.43705   0.20372   0.00000  Uiso   1.00
C158   C     0.71013   0.47575   0.25429   0.00000  Uiso   1.00
C159   C     0.68827   0.61639   0.17067   0.00000  Uiso   1.00
C160   C     0.58145   0.55430   0.30367   0.00000  Uiso   1.00
O161   O     0.83727   0.07845   0.52466   0.00000  Uiso   1.00
C162   C     0.72826   0.06691   0.42909   0.00000  Uiso   1.00
C163   C     0.81312   0.23541   0.49145   0.00000  Uiso   1.00
C164   C     0.92733   0.17622   0.40348   0.00000  Uiso   1.00
C165   C     0.96166   0.34761   0.63188   0.00000  Uiso   1.00
O166   O     0.86483   0.47446   0.40984   0.00000  Uiso   1.00
C167   C     1.02612   0.57683   0.46029   0.00000  Uiso   1.00
C168   C     1.00085   0.42879   0.36368   0.00000  Uiso   1.00
C169   C     0.98868   0.60091   0.32040   0.00000  Uiso   1.00
C170   C     0.49023   0.45874   0.61199   0.00000  Uiso   1.00
O171   O     0.65138   0.25512   0.83447   0.00000  Uiso   1.00
C172   C     0.82482   0.29128   0.79529   0.00000  Uiso   1.00
C173   C     0.72058   0.37615   0.72770   0.00000  Uiso   1.00
C174   C     0.78048   0.42529   0.86668   0.00000  Uiso   1.00
O175   O     0.51105   0.38002   0.76340   0.00000  Uiso   1.00
C176   C     0.61048   0.47236   0.85850   0.00000  Uiso   1.00
C177   C     0.49503   0.54158   0.79061   0.00000  Uiso   1.00
C178   C     0.62382   0.58776   1.01033   0.00000  Uiso   1.00
O179   O     0.53652   0.71446   0.14455   0.00000  Uiso   1.00
C180   C     0.62605   0.91196   0.14516   0.00000  Uiso   1.00
O181   O     0.51850   0.79018   0.24974   0.00000  Uiso   1.00
O182   O     0.99472   0.91197   1.00893   0.00000  Uiso   1.00
C183   C     0.97016   0.78813   0.12417   0.00000  Uiso   1.00
C184   C     0.92828   0.95758   0.12429   0.00000  Uiso   1.00
C185   C     0.80642   0.76913   0.28628   0.00000  Uiso   1.00
O186   O     0.66010   0.78294   0.22622   0.00000  Uiso   1.00
C187   C     0.65753   0.78621   0.36491   0.00000  Uiso   1.00
C188   C     0.78076   0.93880   0.27270   0.00000  Uiso   1.00
O189   O     0.64344   0.53571   0.72901   0.00000  Uiso   1.00
C190   C     0.70893   0.63159   0.61094   0.00000  Uiso   1.00
C191   C     0.69296   0.72831   0.72741   0.00000  Uiso   1.00
C192   C     0.82350   0.64337   0.71726   0.00000  Uiso   1.00
C193   C     1.02038   0.79963   0.91982   0.00000  Uiso   1.00
C194   C     0.45742   0.70815   0.87187   0.00000  Uiso   1.00
C195   C     0.64375   0.76919   0.89464   0.00000  Uiso   1.00
C196   C     0.82381   0.80200   1.05505   0.00000  Uiso   1.00
C197   C     0.60246   0.89320   0.82208   0.00000  Uiso   1.00
C198   C     0.78388   0.99984   0.96051   0.00000  Uiso   1.00
O199   O     0.53500   0.83786   0.95433   0.00000  Uiso   1.00
H200   H     0.13370   0.96409   0.18335   0.00000  Uiso   1.00
H201   H     0.09527   1.02598   0.13112   0.00000  Uiso   1.00
H202   H     0.14804   1.07672   0.20075   0.00000  Uiso   1.00
H203   H     0.15378   0.18536   0.37213   0.00000  Uiso   1.00
H204   H     0.13750   0.14504   0.29334   0.00000  Uiso   1.00
H205   H     0.20781   0.26620   0.30537   0.00000  Uiso   1.00
H206   H     0.18990   0.02374   0.38721   0.00000  Uiso   1.00
H207   H     0.30249   0.03951   0.36700   0.00000  Uiso   1.00
H208   H     0.21247   0.00436   0.31313   0.00000  Uiso   1.00
H209   H     0.12215   0.11024   0.74027   0.00000  Uiso   1.00
H210   H     0.05523   0.08998   0.81693   0.00000  Uiso   1.00
H211   H     0.05144   0.00058   0.76965   0.00000  Uiso   1.00
H212   H     0.16894   0.27051   0.18645   0.00000  Uiso   1.00
H213   H     0.09598   0.23248   0.12752   0.00000  Uiso   1.00
H214   H     0.08652   0.31857   0.17451   0.00000  Uiso   1.00
H215   H     0.04985   0.48041   1.01438   0.00000  Uiso   1.00
H216   H     0.09493   0.56563   0.95665   0.00000  Uiso   1.00
H217   H     0.05895   0.59082   1.03030   0.00000  Uiso   1.00
H218   H     0.32944   0.64313   0.96636   0.00000  Uiso   1.00
H219   H     0.23975   0.55745   0.92855   0.00000  Uiso   1.00
H220   H     0.30138   0.52648   0.98498   0.00000  Uiso   1.00
H221   H     0.50412   0.28966   0.45571   0.00000  Uiso   1.00
H222   H     0.46235   0.35485   0.50610   0.00000  Uiso   1.00
H223   H     0.47512   0.38119   0.42164   0.00000  Uiso   1.00
H224   H     0.33679   0.09950   0.46901   0.00000  Uiso   1.00
H225   H     0.24965   0.10236   0.51913   0.00000  Uiso   1.00
H226   H     0.35138   0.15141   0.55015   0.00000  Uiso   1.00
H227   H     0.14749   0.44568   0.62993   0.00000  Uiso   1.00
H228   H     0.16998   0.57304   0.63557   0.00000  Uiso   1.00
H229   H     0.12048   0.51360   0.56362   0.00000  Uiso   1.00
H230   H     0.90477   0.50167   0.66708   0.00000  Uiso   1.00
H231   H     0.99430   0.59079   0.61361   0.00000  Uiso   1.00
H232   H     0.99109   0.59174   0.69917   0.00000  Uiso   1.00
H233   H     0.05076   0.25853   0.75683   0.00000  Uiso   1.00
H234   H     0.15046   0.25191   0.76822   0.00000  Uiso   1.00
H235   H     0.15541   0.36223   0.73596   0.00000  Uiso   1.00
H236   H     0.27711   0.36722   0.84154   0.00000  Uiso   1.00
H237   H     0.23890   0.38761   0.92289   0.00000  Uiso   1.00
H238   H     0.26381   0.46904   0.85228   0.00000  Uiso   1.00
H239   H    -0.04220   0.53763   0.81273   0.00000  Uiso   1.00
H240   H     0.04876   0.60824   0.85923   0.00000  Uiso   1.00
H241   H    -0.01886   0.49480   0.88966   0.00000  Uiso   1.00
H242   H     0.10063   0.71833   0.17294   0.00000  Uiso   1.00
H243   H     0.17790   0.73989   0.22716   0.00000  Uiso   1.00
H244   H     0.12772   0.62504   0.19776   0.00000  Uiso   1.00
H245   H    -0.00760   0.72723   0.57276   0.00000  Uiso   1.00
H246   H     0.00621   0.79307   0.48949   0.00000  Uiso   1.00
H247   H    -0.07050   0.79242   0.54830   0.00000  Uiso   1.00
H248   H     0.08906   0.86100   0.68679   0.00000  Uiso   1.00
H249   H    -0.00045   0.88581   0.66986   0.00000  Uiso   1.00
H250   H     0.10584   0.98310   0.66725   0.00000  Uiso   1.00
H251   H     0.09946   1.06131   0.55444   0.00000  Uiso   1.00
H252   H     0.00078   0.97571   0.51889   0.00000  Uiso   1.00
H253   H     0.10207   1.00331   0.47839   0.00000  Uiso   1.00
H254   H     0.23302   0.93790   0.83840   0.00000  Uiso   1.00
H255   H     0.23444   0.97569   0.74926   0.00000  Uiso   1.00
H256   H     0.14345   0.88879   0.79549   0.00000  Uiso   1.00
H257   H     0.55606   0.08870   0.34360   0.00000  Uiso   1.00
H258   H     0.54550   0.03412   0.26530   0.00000  Uiso   1.00
H259   H     0.45519   0.04304   0.31878   0.00000  Uiso   1.00
H260   H     0.52590   0.30959  -0.05587   0.00000  Uiso   1.00
H261   H     0.57827   0.25680  -0.00837   0.00000  Uiso   1.00
H262   H     0.47512   0.24851   0.02484   0.00000  Uiso   1.00
H263   H     0.60869   0.37961   0.04631   0.00000  Uiso   1.00
H264   H     0.62003   0.32835   0.12349   0.00000  Uiso   1.00
H265   H     0.66733   0.44479   0.10236   0.00000  Uiso   1.00
H266   H     0.35403   0.40358   0.25106   0.00000  Uiso   1.00
H267   H     0.39009   0.51777   0.28864   0.00000  Uiso   1.00
H268   H     0.45053   0.50920   0.21293   0.00000  Uiso   1.00
H269   H     0.23714   0.53536   0.27047   0.00000  Uiso   1.00
H270   H     0.18341   0.42388   0.24824   0.00000  Uiso   1.00
H271   H     0.18516   0.52302   0.19912   0.00000  Uiso   1.00
H272   H     0.45279   0.39900   0.97218   0.00000  Uiso   1.00
H273   H     0.43522   0.49312   0.92377   0.00000  Uiso   1.00
H274   H     0.36803   0.43185   1.00021   0.00000  Uiso   1.00
H275   H     0.75108   0.44502   0.57500   0.00000  Uiso   1.00
H276   H     0.85761   0.52949   0.55522   0.00000  Uiso   1.00
H277   H     0.83977   0.41113   0.54318   0.00000  Uiso   1.00
H278   H     0.49962   0.30467   0.31897   0.00000  Uiso   1.00
H279   H     0.59033   0.29412   0.34193   0.00000  Uiso   1.00
H280   H     0.48173   0.20599   0.37210   0.00000  Uiso   1.00
H281   H     0.64410   0.40155   0.48949   0.00000  Uiso   1.00
H282   H     0.67669   0.33317   0.44629   0.00000  Uiso   1.00
H283   H     0.66580   0.42206   0.40242   0.00000  Uiso   1.00
H284   H     0.73240   0.60485   0.45568   0.00000  Uiso   1.00
H285   H     0.81304   0.63086   0.39474   0.00000  Uiso   1.00
H286   H     0.84160   0.65039   0.47283   0.00000  Uiso   1.00
H287   H     0.15635   0.20367   0.59638   0.00000  Uiso   1.00
H288   H     0.12408   0.22605   0.51233   0.00000  Uiso   1.00
H289   H     0.12037   0.29156   0.58161   0.00000  Uiso   1.00
H290   H     0.22647   0.59915   0.82203   0.00000  Uiso   1.00
H291   H     0.18046   0.65246   0.76145   0.00000  Uiso   1.00
H292   H     0.21811   0.57181   0.73883   0.00000  Uiso   1.00
H293   H     0.39466   0.18025   0.69432   0.00000  Uiso   1.00
H294   H     0.39597   0.13856   0.77569   0.00000  Uiso   1.00
H295   H     0.49089   0.21296   0.72598   0.00000  Uiso   1.00
H296   H     0.27423   0.46974   0.65114   0.00000  Uiso   1.00
H297   H     0.37764   0.55737   0.65170   0.00000  Uiso   1.00
H298   H     0.32615   0.49442   0.72576   0.00000  Uiso   1.00
H299   H     0.27967   0.88191   0.27835   0.00000  Uiso   1.00
H300   H     0.23494   0.90462   0.20774   0.00000  Uiso   1.00
H301   H     0.32040   0.99919   0.23551   0.00000  Uiso   1.00
H302   H     0.45190   0.54303   0.45067   0.00000  Uiso   1.00
H303   H     0.42340   0.61223   0.39297   0.00000  Uiso   1.00
H304   H     0.37435   0.48610   0.39596   0.00000  Uiso   1.00
H305   H     0.39068   0.63623   0.56452   0.00000  Uiso   1.00
H306   H     0.28347   0.63805   0.55497   0.00000  Uiso   1.00
H307   H     0.37438   0.70219   0.49501   0.00000  Uiso   1.00
H308   H     0.13871   0.71607   0.59965   0.00000  Uiso   1.00
H309   H     0.18894   0.80144   0.65634   0.00000  Uiso   1.00
H310   H     0.24919   0.74310   0.61751   0.00000  Uiso   1.00
H311   H     0.23454   0.86057   0.41828   0.00000  Uiso   1.00
H312   H     0.15281   0.75390   0.45488   0.00000  Uiso   1.00
H313   H     0.27291   0.77987   0.44998   0.00000  Uiso   1.00
H314   H     0.23229   0.50978   0.38034   0.00000  Uiso   1.00
H315   H     0.23120   0.60614   0.41982   0.00000  Uiso   1.00
H316   H     0.15783   0.48929   0.45883   0.00000  Uiso   1.00
H317   H     0.32555   0.68040   0.24441   0.00000  Uiso   1.00
H318   H     0.29663   0.74640   0.29800   0.00000  Uiso   1.00
H319   H     0.33851   0.67454   0.33073   0.00000  Uiso   1.00
H320   H     0.53159   0.92238   0.34223   0.00000  Uiso   1.00
H321   H     0.45552   0.80275   0.37660   0.00000  Uiso   1.00
H322   H     0.40992   0.87507   0.36886   0.00000  Uiso   1.00
H323   H     0.20155   0.77811   0.86924   0.00000  Uiso   1.00
H324   H     0.18216   0.72568   0.94785   0.00000  Uiso   1.00
H325   H     0.25016   0.70184   0.89089   0.00000  Uiso   1.00
H326   H     0.45801   0.96739   0.86535   0.00000  Uiso   1.00
H327   H     0.37343   0.96849   0.82600   0.00000  Uiso   1.00
H328   H     0.39057   0.86725   0.82101   0.00000  Uiso   1.00
H329   H     0.48162   1.09479   0.47885   0.00000  Uiso   1.00
H330   H     0.55305   1.09482   0.53107   0.00000  Uiso   1.00
H331   H     0.47480   1.12073   0.56336   0.00000  Uiso   1.00
H332   H     0.54309   0.91588   0.51765   0.00000  Uiso   1.00
H333   H     0.44718   0.86057   0.47778   0.00000  Uiso   1.00
H334   H     0.45659   0.82515   0.55740   0.00000  Uiso   1.00
H335   H     0.39200   0.98235   0.67376   0.00000  Uiso   1.00
H336   H     0.49430   0.97642   0.66289   0.00000  Uiso   1.00
H337   H     0.40004   0.86962   0.66670   0.00000  Uiso   1.00
H338   H     0.62337   0.15185   0.04359   0.00000  Uiso   1.00
H339   H     0.58647   0.08700   0.12391   0.00000  Uiso   1.00
H340   H     0.55102   0.16710   0.10271   0.00000  Uiso   1.00
H341   H     0.79575   0.13306   0.24693   0.00000  Uiso   1.00
H342   H     0.69977   0.08668   0.20872   0.00000  Uiso   1.00
H343   H     0.69780   0.09892   0.29318   0.00000  Uiso   1.00
H344   H     0.83281   0.29182   0.30386   0.00000  Uiso   1.00
H345   H     0.73554   0.26821   0.35036   0.00000  Uiso   1.00
H346   H     0.79139   0.37334   0.29699   0.00000  Uiso   1.00
H347   H     0.85771   0.07682   0.07783   0.00000  Uiso   1.00
H348   H     0.77598   0.11330   0.09473   0.00000  Uiso   1.00
H349   H     0.86120   0.13694   0.14948   0.00000  Uiso   1.00
H350   H     0.74777   0.11131   0.64590   0.00000  Uiso   1.00
H351   H     0.69682  -0.01703   0.67953   0.00000  Uiso   1.00
H352   H     0.66547   0.02496   0.60766   0.00000  Uiso   1.00
H353   H     0.72918  -0.10352   0.52073   0.00000  Uiso   1.00
H354   H     0.69150  -0.16669   0.59873   0.00000  Uiso   1.00
H355   H     0.79872  -0.14392   0.55785   0.00000  Uiso   1.00
H356   H     0.85939  -0.04272   0.68041   0.00000  Uiso   1.00
H357   H     0.91087   0.08003   0.66080   0.00000  Uiso   1.00
H358   H     0.93024   0.00416   0.60916   0.00000  Uiso   1.00
H359   H     0.90966   0.10276   0.79264   0.00000  Uiso   1.00
H360   H     0.92536   0.18249   0.84978   0.00000  Uiso   1.00
H361   H     0.81891   0.10115   0.83484   0.00000  Uiso   1.00
H362   H     0.85195   0.90736   0.83629   0.00000  Uiso   1.00
H363   H     0.87359   0.87415   0.91534   0.00000  Uiso   1.00
H364   H     0.96398   0.95207   0.86588   0.00000  Uiso   1.00
H365   H     0.61364   0.06445   0.75176   0.00000  Uiso   1.00
H366   H     0.61681   0.17758   0.72731   0.00000  Uiso   1.00
H367   H     0.51906   0.07807   0.74434   0.00000  Uiso   1.00
H368   H     0.70312   0.11176   0.87836   0.00000  Uiso   1.00
H369   H     0.59270   0.01937   0.90414   0.00000  Uiso   1.00
H370   H     0.64338   0.13329   0.93502   0.00000  Uiso   1.00
H371   H     0.89311   0.33248   0.94926   0.00000  Uiso   1.00
H372   H     0.79261   0.26533   0.99719   0.00000  Uiso   1.00
H373   H     0.83379   0.20659   0.93694   0.00000  Uiso   1.00
H374   H     0.81800   0.48592   0.09428   0.00000  Uiso   1.00
H375   H     0.80541   0.41342   0.02720   0.00000  Uiso   1.00
H376   H     0.90824   0.50701   0.04554   0.00000  Uiso   1.00
H377   H     0.88849   0.45531   0.21228   0.00000  Uiso   1.00
H378   H     0.98709   0.49354   0.16282   0.00000  Uiso   1.00
H379   H     0.95025   0.38800   0.22197   0.00000  Uiso   1.00
H380   H     0.67904   0.41143   0.28768   0.00000  Uiso   1.00
H381   H     0.76976   0.52905   0.27425   0.00000  Uiso   1.00
H382   H     0.73610   0.45167   0.21312   0.00000  Uiso   1.00
H383   H     0.63993   0.62008   0.13930   0.00000  Uiso   1.00
H384   H     0.72349   0.58754   0.14003   0.00000  Uiso   1.00
H385   H     0.72768   0.67923   0.18614   0.00000  Uiso   1.00
H386   H     0.54864   0.59524   0.29140   0.00000  Uiso   1.00
H387   H     0.62770   0.59774   0.33720   0.00000  Uiso   1.00
H388   H     0.54308   0.48356   0.33081   0.00000  Uiso   1.00
H389   H     0.74240   0.01845   0.39646   0.00000  Uiso   1.00
H390   H     0.70363   0.11506   0.40223   0.00000  Uiso   1.00
H391   H     0.67937   0.02166   0.46707   0.00000  Uiso   1.00
H392   H     0.82114   0.27626   0.44672   0.00000  Uiso   1.00
H393   H     0.85643   0.27602   0.52368   0.00000  Uiso   1.00
H394   H     0.75085   0.20155   0.51502   0.00000  Uiso   1.00
H395   H     0.98920   0.23090   0.42017   0.00000  Uiso   1.00
H396   H     0.92436   0.21151   0.35590   0.00000  Uiso   1.00
H397   H     0.93198   0.11233   0.39483   0.00000  Uiso   1.00
H398   H     0.97487   0.29302   0.65517   0.00000  Uiso   1.00
H399   H     0.99364   0.36356   0.58381   0.00000  Uiso   1.00
H400   H     0.89568   0.33194   0.63513   0.00000  Uiso   1.00
H401   H     0.99466   0.53526   0.50638   0.00000  Uiso   1.00
H402   H     1.02200   0.64414   0.46332   0.00000  Uiso   1.00
H403   H     1.09135   0.58715   0.45348   0.00000  Uiso   1.00
H404   H     1.06696   0.45989   0.33625   0.00000  Uiso   1.00
H405   H     0.96107   0.38081   0.32863   0.00000  Uiso   1.00
H406   H     1.00881   0.39318   0.40965   0.00000  Uiso   1.00
H407   H     0.95650   0.64376   0.33616   0.00000  Uiso   1.00
H408   H     0.97156   0.56911   0.27526   0.00000  Uiso   1.00
H409   H     1.06028   0.64987   0.31185   0.00000  Uiso   1.00
H410   H     0.52530   0.51848   0.63481   0.00000  Uiso   1.00
H411   H     0.48827   0.47785   0.56105   0.00000  Uiso   1.00
H412   H     0.51508   0.40436   0.62543   0.00000  Uiso   1.00
H413   H     0.85512   0.30104   0.84096   0.00000  Uiso   1.00
H414   H     0.87052   0.33306   0.75618   0.00000  Uiso   1.00
H415   H     0.79109   0.21449   0.78114   0.00000  Uiso   1.00
H416   H     0.65539   0.37261   0.72649   0.00000  Uiso   1.00
H417   H     0.73725   0.33768   0.69146   0.00000  Uiso   1.00
H418   H     0.76856   0.44753   0.71717   0.00000  Uiso   1.00
H419   H     0.73018   0.40172   0.90712   0.00000  Uiso   1.00
H420   H     0.78567   0.48843   0.83859   0.00000  Uiso   1.00
H421   H     0.83810   0.43018   0.89138   0.00000  Uiso   1.00
H422   H     0.56850   0.47260   0.89700   0.00000  Uiso   1.00
H423   H     0.66759   0.53689   0.85234   0.00000  Uiso   1.00
H424   H     0.62944   0.41032   0.85303   0.00000  Uiso   1.00
H425   H     0.49002   0.57626   0.74449   0.00000  Uiso   1.00
H426   H     0.52406   0.59802   0.82524   0.00000  Uiso   1.00
H427   H     0.43033   0.49112   0.81589   0.00000  Uiso   1.00
H428   H     0.64802   0.65924   1.02369   0.00000  Uiso   1.00
H429   H     0.63715   0.59281   0.95719   0.00000  Uiso   1.00
H430   H     0.65901   0.55286   1.03079   0.00000  Uiso   1.00
H431   H     0.57431   0.93923   0.13745   0.00000  Uiso   1.00
H432   H     0.65457   0.90339   0.09735   0.00000  Uiso   1.00
H433   H     0.68033   0.96663   0.16728   0.00000  Uiso   1.00
H434   H     0.98549   0.74440   0.09100   0.00000  Uiso   1.00
H435   H     0.91366   0.73517   0.15295   0.00000  Uiso   1.00
H436   H     1.01320   0.82503   0.15994   0.00000  Uiso   1.00
H437   H     0.94512   0.94101   0.17184   0.00000  Uiso   1.00
H438   H     0.86535   0.94930   0.12660   0.00000  Uiso   1.00
H439   H     0.96810   1.03533   0.10536   0.00000  Uiso   1.00
H440   H     0.84811   0.77824   0.24099   0.00000  Uiso   1.00
H441   H     0.77225   0.69187   0.29769   0.00000  Uiso   1.00
H442   H     0.85677   0.80578   0.32027   0.00000  Uiso   1.00
H443   H     0.65329   0.72584   0.39480   0.00000  Uiso   1.00
H444   H     0.59063   0.77980   0.35598   0.00000  Uiso   1.00
H445   H     0.69154   0.84600   0.39348   0.00000  Uiso   1.00
H446   H     0.82451   0.96539   0.30715   0.00000  Uiso   1.00
H447   H     0.73615   0.96732   0.27914   0.00000  Uiso   1.00
H448   H     0.81683   0.96699   0.22793   0.00000  Uiso   1.00
H449   H     0.72153   0.57828   0.59429   0.00000  Uiso   1.00
H450   H     0.76879   0.69393   0.58797   0.00000  Uiso   1.00
H451   H     0.65010   0.63679   0.60060   0.00000  Uiso   1.00
H452   H     0.73574   0.79301   0.69567   0.00000  Uiso   1.00
H453   H     0.70898   0.74159   0.77862   0.00000  Uiso   1.00
H454   H     0.62677   0.71906   0.72088   0.00000  Uiso   1.00
H455   H     0.81898   0.61402   0.76788   0.00000  Uiso   1.00
H456   H     0.86796   0.71876   0.71016   0.00000  Uiso   1.00
H457   H     0.85292   0.61088   0.68575   0.00000  Uiso   1.00
H458   H     1.07329   0.78918   0.89692   0.00000  Uiso   1.00
H459   H     0.99260   0.81708   0.87460   0.00000  Uiso   1.00
H460   H     0.97501   0.73461   0.94632   0.00000  Uiso   1.00
H461   H     0.43995   0.64845   0.90745   0.00000  Uiso   1.00
H462   H     0.46726   0.69996   0.82132   0.00000  Uiso   1.00
H463   H     0.40662   0.73619   0.87847   0.00000  Uiso   1.00
H464   H     0.65267   0.75186   0.94820   0.00000  Uiso   1.00
H465   H     0.70470   0.82253   0.86759   0.00000  Uiso   1.00
H466   H     0.63080   0.70754   0.87024   0.00000  Uiso   1.00
H467   H     0.80327   0.83713   1.01708   0.00000  Uiso   1.00
H468   H     0.77898   0.77791   1.09735   0.00000  Uiso   1.00
H469   H     0.82247   0.73583   1.03579   0.00000  Uiso   1.00
H470   H     0.62214   0.86914   0.78054   0.00000  Uiso   1.00
H471   H     0.65486   0.95814   0.83132   0.00000  Uiso   1.00
H472   H     0.55124   0.91221   0.80924   0.00000  Uiso   1.00
H473   H     0.76445   1.05734   0.96267   0.00000  Uiso   1.00
H474   H     0.77758   0.97245   1.01168   0.00000  Uiso   1.00
H475   H     0.73795   0.95612   0.93072   0.00000  Uiso   1.00
loop_
_geom_bond_atom_site_label_1
_geom_bond_atom_site_label_2
_geom_bond_distance
_geom_bond_site_symmetry_2
_ccdc_geom_bond_type
Si1    O53     1.673   .     S
Si1    O84     1.612   .     S
Si1    C52     1.896   1_545 S
Si1    O77     1.596   1_545 S
Si2    O53     1.637   .     S
Si2    O59     1.655   .     S
Si2    O57     1.620   1_554 S
Si2    O91     1.601   1_554 S
Si3    C54     1.841   .     S
Si3    C55     1.894   .     S
Si3    O64     1.613   .     S
Si3    O85     1.606   .     S
Si4    C56     1.858   .     S
Si4    O89     1.628   .     S
Si4    O79     1.594   1_545 S
Si4    C83     1.866   1_545 S
Si5    O57     1.564   .     S
Si5    O68     1.574   .     S
Si5    O141    1.616   1_455 S
Si5    O147    1.595   1_455 S
Si6    C58     1.851   .     S
Si6    O59     1.642   .     S
Si6    O60     1.630   .     S
Si6    O95     1.556   .     S
Si7    O60     1.623   .     S
Si7    O75     1.672   .     S
Si7    C61     1.875   1_554 S
Si7    C62     1.800   1_554 S
Si8    C63     1.803   .     S
Si8    O64     1.650   .     S
Si8    C65     1.901   .     S
Si8    O104    1.608   .     S
Si9    C66     1.856   .     S
Si9    O71     1.552   .     S
Si9    C67     1.928   1_455 S
Si9    C165    1.843   1_455 S
Si10   O68     1.561   .     S
Si10   C69     1.822   .     S
Si10   C70     1.850   .     S
Si10   O72     1.557   .     S
Si11   O71     1.624   .     S
Si11   O72     1.630   .     S
Si11   C73     1.869   .     S
Si11   C106    1.903   .     S
Si12   C74     1.819   .     S
Si12   O75     1.636   .     S
Si12   O76     1.638   .     S
Si12   O114    1.570   .     S
Si13   O76     1.618   .     S
Si13   O77     1.598   .     S
Si13   O78     1.571   1_554 S
Si13   O132    1.615   1_554 S
Si14   O78     1.557   .     S
Si14   O79     1.601   .     S
Si14   O182    1.578   1_455 S
Si14   C193    1.842   1_455 S
Si15   C80     1.887   .     S
Si15   C81     1.863   .     S
Si15   C82     1.808   .     S
Si15   O124    1.593   .     S
Si16   O86     1.652   .     S
Si16   C137    1.940   .     S
Si16   O115    1.631   1_545 S
Si16   O118    1.642   1_545 S
Si17   O84     1.608   .     S
Si17   O85     1.605   .     S
Si17   O87     1.612   .     S
Si17   O92     1.581   .     S
Si18   O86     1.612   .     S
Si18   C93     1.822   .     S
Si18   O90     1.591   1_554 S
Si18   O152    1.594   1_554 S
Si19   O87     1.632   .     S
Si19   C88     1.809   .     S
Si19   C101    1.870   .     S
Si19   O140    1.602   .     S
Si20   O89     1.586   .     S
Si20   O90     1.626   .     S
Si20   O91     1.593   .     S
Si20   O107    1.578   .     S
Si21   O92     1.614   .     S
Si21   C94     1.854   .     S
Si21   O98     1.624   .     S
Si21   O157    1.557   .     S
Si22   O95     1.567   .     S
Si22   C96     1.817   .     S
Si22   C97     1.923   .     S
Si22   O112    1.582   .     S
Si23   O98     1.598   .     S
Si23   O113    1.574   .     S
Si23   C99     1.867   1_554 S
Si23   C178    1.828   1_554 S
Si24   C100    1.807   .     S
Si24   C102    1.832   .     S
Si24   C103    1.920   .     S
Si24   O166    1.606   .     S
Si25   O104    1.594   .     S
Si25   C105    1.849   .     S
Si25   O109    1.584   .     S
Si25   O119    1.585   .     S
Si26   O107    1.586   .     S
Si26   C108    1.818   .     S
Si26   O110    1.651   .     S
Si26   O175    1.545   .     S
Si27   O109    1.630   .     S
Si27   O110    1.610   .     S
Si27   C111    1.858   .     S
Si27   C170    1.871   .     S
Si28   O112    1.620   .     S
Si28   O113    1.611   .     S
Si28   O117    1.555   .     S
Si28   O179    1.582   .     S
Si29   O114    1.585   .     S
Si29   O115    1.553   .     S
Si29   C116    1.875   .     S
Si29   O125    1.583   .     S
Si30   O117    1.655   .     S
Si30   O118    1.579   .     S
Si30   O130    1.587   1_554 S
Si30   O199    1.613   1_554 S
Si31   O119    1.605   .     S
Si31   C120    1.905   .     S
Si31   C121    1.897   .     S
Si31   C126    1.835   .     S
Si32   C122    1.849   .     S
Si32   C123    1.908   .     S
Si32   O124    1.585   .     S
Si32   O133    1.596   .     S
Si33   O125    1.585   .     S
Si33   C127    1.846   .     S
Si33   C128    1.826   .     S
Si33   O181    1.608   .     S
Si34   C129    1.833   .     S
Si34   O130    1.624   .     S
Si34   C131    1.888   .     S
Si34   O132    1.592   .     S
Si35   O133    1.576   .     S
Si35   C134    1.831   .     S
Si35   C135    1.857   .     S
Si35   C136    1.861   .     S
Si36   C138    1.853   .     S
Si36   C139    1.839   .     S
Si36   O140    1.578   .     S
Si36   O153    1.635   .     S
Si37   C142    1.928   .     S
Si37   O154    1.662   .     S
Si37   O141    1.602   1_554 S
Si37   C151    1.872   1_554 S
Si38   C143    1.834   .     S
Si38   C144    1.866   .     S
Si38   C145    1.856   .     S
Si38   O161    1.603   .     S
Si39   C146    1.892   .     S
Si39   O147    1.632   .     S
Si39   C148    1.865   1_545 S
Si39   C198    1.855   1_545 S
Si40   C149    1.845   .     S
Si40   C150    1.739   .     S
Si40   O152    1.608   .     S
Si40   O171    1.622   .     S
Si41   O153    1.600   .     S
Si41   O154    1.636   .     S
Si41   C155    1.826   .     S
Si41   C156    1.833   .     S
Si42   O157    1.611   .     S
Si42   C158    1.887   .     S
Si42   C159    1.854   .     S
Si42   C160    1.889   .     S
Si43   O161    1.569   .     S
Si43   C162    1.866   .     S
Si43   C163    1.807   .     S
Si43   C164    1.917   .     S
Si44   O166    1.583   .     S
Si44   C167    1.942   .     S
Si44   C168    1.876   .     S
Si44   C169    1.783   .     S
Si45   O171    1.595   .     S
Si45   C172    1.864   .     S
Si45   C173    1.845   .     S
Si45   C174    1.887   .     S
Si46   O175    1.583   .     S
Si46   C176    1.808   .     S
Si46   C177    1.855   .     S
Si46   O189    1.611   .     S
Si47   O179    1.636   .     S
Si47   C180    1.915   .     S
Si47   O181    1.565   .     S
Si47   O186    1.585   .     S
Si48   C183    1.882   .     S
Si48   C184    1.844   .     S
Si48   O182    1.601   1_554 S
Si48   C196    1.883   1_554 S
Si49   C185    1.870   .     S
Si49   O186    1.623   .     S
Si49   C187    1.902   .     S
Si49   C188    1.799   .     S
Si50   O189    1.597   .     S
Si50   C190    1.844   .     S
Si50   C191    1.884   .     S
Si50   C192    1.828   .     S
Si51   C194    1.830   .     S
Si51   C195    1.784   .     S
Si51   C197    1.841   .     S
Si51   O199    1.582   .     S
C52    H200    1.078   .     S
C52    H201    1.070   .     S
C52    H202    1.117   .     S
C52    Si1     1.896   1_565 S
C54    H203    1.113   .     S
C54    H204    1.077   .     S
C54    H205    1.130   .     S
C55    H206    1.130   .     S
C55    H207    1.110   .     S
C55    H208    1.096   .     S
C56    H209    1.137   .     S
C56    H210    1.068   .     S
C56    H211    1.060   .     S
O57    Si2     1.620   1_556 S
C58    H212    1.093   .     S
C58    H213    1.119   .     S
C58    H214    1.096   .     S
C61    H215    1.078   .     S
C61    H216    1.077   .     S
C61    H217    1.132   .     S
C61    Si7     1.875   1_556 S
C62    H218    1.081   .     S
C62    H219    1.105   .     S
C62    H220    1.139   .     S
C62    Si7     1.800   1_556 S
C63    H221    1.111   .     S
C63    H222    1.081   .     S
C63    H223    1.099   .     S
C65    H224    1.117   .     S
C65    H225    1.093   .     S
C65    H226    1.107   .     S
C66    H227    1.130   .     S
C66    H228    1.126   .     S
C66    H229    1.163   .     S
C67    H230    1.115   .     S
C67    H231    1.095   .     S
C67    H232    1.128   .     S
C67    Si9     1.928   1_655 S
C69    H233    1.138   .     S
C69    H234    1.094   .     S
C69    H235    1.117   .     S
C70    H236    1.118   .     S
C70    H237    1.138   .     S
C70    H238    1.121   .     S
C73    H239    1.088   .     S
C73    H240    1.157   .     S
C73    H241    1.094   .     S
C74    H242    1.073   .     S
C74    H243    1.071   .     S
C74    H244    1.148   .     S
O77    Si1     1.596   1_565 S
O78    Si13    1.571   1_556 S
O79    Si4     1.594   1_565 S
C80    H245    1.107   .     S
C80    H246    1.118   .     S
C80    H247    1.134   .     S
C81    H248    1.161   .     S
C81    H249    1.150   .     S
C81    H250    1.095   .     S
C82    H251    1.184   .     S
C82    H252    1.122   .     S
C82    H253    1.078   .     S
C83    H254    1.133   .     S
C83    H255    1.145   .     S
C83    H256    1.077   .     S
C83    Si4     1.866   1_565 S
C88    H257    1.098   .     S
C88    H258    1.161   .     S
C88    H259    1.104   .     S
O90    Si18    1.591   1_556 S
O91    Si2     1.601   1_556 S
C93    H260    1.135   .     S
C93    H261    1.117   .     S
C93    H262    1.119   .     S
C94    H263    1.105   .     S
C94    H264    1.115   .     S
C94    H265    1.055   .     S
C96    H266    1.117   .     S
C96    H267    1.194   .     S
C96    H268    1.147   .     S
C97    H269    1.053   .     S
C97    H270    1.158   .     S
C97    H271    1.072   .     S
C99    H272    1.143   .     S
C99    H273    1.183   .     S
C99    H274    1.157   .     S
C99    Si23    1.867   1_556 S
C100   H275    1.128   .     S
C100   H276    1.116   .     S
C100   H277    1.139   .     S
C101   H278    1.109   .     S
C101   H279    1.074   .     S
C101   H280    1.116   .     S
C102   H281    1.103   .     S
C102   H282    1.041   .     S
C102   H283    1.081   .     S
C103   H284    1.077   .     S
C103   H285    1.040   .     S
C103   H286    1.109   .     S
C105   H287    1.117   .     S
C105   H288    1.138   .     S
C105   H289    1.065   .     S
C106   H290    1.096   .     S
C106   H291    1.135   .     S
C106   H292    1.124   .     S
C108   H293    1.075   .     S
C108   H294    1.083   .     S
C108   H295    1.062   .     S
C111   H296    1.128   .     S
C111   H297    1.113   .     S
C111   H298    1.124   .     S
O115   Si16    1.631   1_565 S
C116   H299    1.102   .     S
C116   H300    1.052   .     S
C116   H301    1.149   .     S
O118   Si16    1.642   1_565 S
C120   H302    1.090   .     S
C120   H303    1.112   .     S
C120   H304    1.085   .     S
C121   H305    1.173   .     S
C121   H306    1.085   .     S
C121   H307    1.147   .     S
C122   H308    1.098   .     S
C122   H309    1.173   .     S
C122   H310    1.100   .     S
C123   H311    1.096   .     S
C123   H312    1.142   .     S
C123   H313    1.099   .     S
C126   H314    1.160   .     S
C126   H315    1.073   .     S
C126   H316    1.124   .     S
C127   H317    1.078   .     S
C127   H318    1.030   .     S
C127   H319    1.117   .     S
C128   H320    1.144   .     S
C128   H321    1.057   .     S
C128   H322    1.088   .     S
C129   H323    1.096   .     S
C129   H324    1.111   .     S
C129   H325    1.121   .     S
O130   Si30    1.587   1_556 S
C131   H326    1.133   .     S
C131   H327    1.043   .     S
C131   H328    1.104   .     S
O132   Si13    1.615   1_556 S
C134   H329    1.104   .     S
C134   H330    1.056   .     S
C134   H331    1.101   .     S
C135   H332    1.121   .     S
C135   H333    1.107   .     S
C135   H334    1.059   .     S
C136   H335    1.117   .     S
C136   H336    1.090   .     S
C136   H337    1.110   .     S
C137   H338    1.081   .     S
C137   H339    1.105   .     S
C137   H340    1.075   .     S
C138   H341    1.091   .     S
C138   H342    1.095   .     S
C138   H343    1.048   .     S
C139   H344    1.097   .     S
C139   H345    1.108   .     S
C139   H346    1.092   .     S
O141   Si5     1.616   1_655 S
O141   Si37    1.602   1_556 S
C142   H347    1.088   .     S
C142   H348    1.079   .     S
C142   H349    1.164   .     S
C143   H350    1.168   .     S
C143   H351    1.092   .     S
C143   H352    1.091   .     S
C144   H353    1.126   .     S
C144   H354    1.123   .     S
C144   H355    1.159   .     S
C145   H356    1.104   .     S
C145   H357    1.087   .     S
C145   H358    1.081   .     S
C146   H359    1.117   .     S
C146   H360    1.056   .     S
C146   H361    1.075   .     S
O147   Si5     1.595   1_655 S
C148   H362    1.133   .     S
C148   H363    1.090   .     S
C148   H364    1.136   .     S
C148   Si39    1.865   1_565 S
C149   H365    1.135   .     S
C149   H366    1.116   .     S
C149   H367    1.031   .     S
C150   H368    1.108   .     S
C150   H369    1.127   .     S
C150   H370    1.076   .     S
C151   H371    1.131   .     S
C151   H372    1.139   .     S
C151   H373    1.158   .     S
C151   Si37    1.872   1_556 S
O152   Si18    1.594   1_556 S
C155   H374    1.083   .     S
C155   H375    1.160   .     S
C155   H376    1.094   .     S
C156   H377    1.053   .     S
C156   H378    1.129   .     S
C156   H379    1.170   .     S
C158   H380    1.111   .     S
C158   H381    1.148   .     S
C158   H382    1.105   .     S
C159   H383    1.111   .     S
C159   H384    1.103   .     S
C159   H385    1.034   .     S
C160   H386    1.064   .     S
C160   H387    1.125   .     S
C160   H388    1.135   .     S
C162   H389    1.151   .     S
C162   H390    1.160   .     S
C162   H391    1.095   .     S
C163   H392    1.071   .     S
C163   H393    1.065   .     S
C163   H394    1.053   .     S
C164   H395    1.151   .     S
C164   H396    1.124   .     S
C164   H397    1.085   .     S
C165   H398    1.088   .     S
C165   H399    1.073   .     S
C165   H400    1.059   .     S
C165   Si9     1.843   1_655 S
C167   H401    1.101   .     S
C167   H402    1.116   .     S
C167   H403    1.070   .     S
C168   H404    1.136   .     S
C168   H405    1.130   .     S
C168   H406    1.129   .     S
C169   H407    1.104   .     S
C169   H408    1.090   .     S
C169   H409    1.150   .     S
C170   H410    1.053   .     S
C170   H411    1.090   .     S
C170   H412    1.152   .     S
C172   H413    1.099   .     S
C172   H414    1.070   .     S
C172   H415    1.183   .     S
C173   H416    1.109   .     S
C173   H417    1.099   .     S
C173   H418    1.093   .     S
C174   H419    1.097   .     S
C174   H420    1.104   .     S
C174   H421    1.126   .     S
C176   H422    1.049   .     S
C176   H423    1.082   .     S
C176   H424    1.181   .     S
C177   H425    1.105   .     S
C177   H426    1.151   .     S
C177   H427    1.140   .     S
C178   H428    1.101   .     S
C178   H429    1.105   .     S
C178   H430    1.076   .     S
C178   Si23    1.828   1_556 S
C180   H431    1.167   .     S
C180   H432    1.124   .     S
C180   H433    1.126   .     S
O182   Si14    1.578   1_655 S
O182   Si48    1.601   1_556 S
C183   H434    1.108   .     S
C183   H435    1.097   .     S
C183   H436    1.098   .     S
C184   H437    1.096   .     S
C184   H438    1.039   .     S
C184   H439    1.169   .     S
C185   H440    1.114   .     S
C185   H441    1.127   .     S
C185   H442    1.138   .     S
C187   H443    1.091   .     S
C187   H444    1.148   .     S
C187   H445    1.118   .     S
C188   H446    1.048   .     S
C188   H447    1.057   .     S
C188   H448    1.049   .     S
C190   H449    1.039   .     S
C190   H450    1.145   .     S
C190   H451    1.090   .     S
C191   H452    1.127   .     S
C191   H453    1.125   .     S
C191   H454    1.111   .     S
C192   H455    1.110   .     S
C192   H456    1.120   .     S
C192   H457    1.088   .     S
C193   H458    1.087   .     S
C193   H459    1.153   .     S
C193   H460    1.093   .     S
C193   Si14    1.842   1_655 S
C194   H461    1.095   .     S
C194   H462    1.078   .     S
C194   H463    1.150   .     S
C195   H464    1.166   .     S
C195   H465    1.128   .     S
C195   H466    1.081   .     S
C196   H467    1.103   .     S
C196   H468    1.071   .     S
C196   H469    1.147   .     S
C196   Si48    1.883   1_556 S
C197   H470    1.060   .     S
C197   H471    1.092   .     S
C197   H472    1.095   .     S
C198   H473    1.109   .     S
C198   H474    1.106   .     S
C198   H475    1.071   .     S
C198   Si39    1.855   1_565 S
O199   Si30    1.613   1_556 S
