data_333-9-11-16-15-30-10
_audit_creation_date              2025-03-07
_audit_creation_method            'Materials Studio'
_symmetry_space_group_name_H-M    'P1'
_symmetry_Int_Tables_number       1
_symmetry_cell_setting            triclinic
loop_
_symmetry_equiv_pos_as_xyz
  x,y,z
_cell_length_a                    15.3783
_cell_length_b                    17.4471
_cell_length_c                    20.1180
_cell_angle_alpha                 101.9424
_cell_angle_beta                  95.7557
_cell_angle_gamma                 111.7418
loop_
_atom_site_label
_atom_site_type_symbol
_atom_site_fract_x
_atom_site_fract_y
_atom_site_fract_z
_atom_site_U_iso_or_equiv
_atom_site_adp_type
_atom_site_occupancy
Si1    Si   -0.01244   0.13977   0.22577   0.00000  Uiso   1.00
Si2    Si    0.21583   0.13335   0.05423   0.00000  Uiso   1.00
Si3    Si    0.24695   0.08187   0.34600   0.00000  Uiso   1.00
Si4    Si    0.19182   0.22633   0.32329   0.00000  Uiso   1.00
Si5    Si    0.14143   0.22280   0.68991   0.00000  Uiso   1.00
Si6    Si    0.03113   0.32696   0.22610   0.00000  Uiso   1.00
Si7    Si    0.20379   0.33892   0.46788   0.00000  Uiso   1.00
Si8    Si   -0.00459   0.53577   0.57530   0.00000  Uiso   1.00
Si9    Si    0.18039   0.40885   0.72701   0.00000  Uiso   1.00
Si10   Si    0.18546   0.53755   0.64217   0.00000  Uiso   1.00
Si11   Si    0.19092   0.65642   0.02965   0.00000  Uiso   1.00
Si12   Si    0.21046   0.80366  -0.02862   0.00000  Uiso   1.00
Si13   Si    0.21033   0.70238   0.74492   0.00000  Uiso   1.00
Si14   Si    0.00934   0.79020   0.89912   0.00000  Uiso   1.00
Si15   Si    0.23641   0.83978   0.66804   0.00000  Uiso   1.00
Si16   Si    0.52344  -0.06452   0.08608   0.00000  Uiso   1.00
Si17   Si    0.59488   0.36014   0.22137   0.00000  Uiso   1.00
Si18   Si    0.65750   0.30737   0.34122   0.00000  Uiso   1.00
Si19   Si    0.49016  -0.01387   0.82760   0.00000  Uiso   1.00
Si20   Si    0.34514   0.23942   0.97342   0.00000  Uiso   1.00
Si21   Si    0.49624   0.09366   0.72319   0.00000  Uiso   1.00
Si22   Si    0.74291   0.49330   0.16950   0.00000  Uiso   1.00
Si23   Si    0.17040   0.41467   0.14008   0.00000  Uiso   1.00
Si24   Si    0.57721   0.34168   0.46742   0.00000  Uiso   1.00
Si25   Si    0.32527   0.52912   0.54458   0.00000  Uiso   1.00
Si26   Si    0.37588   0.52016   0.82413   0.00000  Uiso   1.00
Si27   Si    0.51383   0.53596   0.62145   0.00000  Uiso   1.00
Si28   Si    0.53963   0.82968  -0.04444   0.00000  Uiso   1.00
Si29   Si    0.33426   0.64637   0.44854   0.00000  Uiso   1.00
Si30   Si    0.20419   0.71796   0.37662   0.00000  Uiso   1.00
Si31   Si    0.53417   0.64387   0.76719   0.00000  Uiso   1.00
Si32   Si    0.35718   0.83275   0.87344   0.00000  Uiso   1.00
Si33   Si    0.87108  -0.00892   0.09020   0.00000  Uiso   1.00
Si34   Si    0.79093   0.11313   0.05146   0.00000  Uiso   1.00
Si35   Si    0.88355   0.04326   0.32340   0.00000  Uiso   1.00
Si36   Si    0.81862  -0.07942   0.79347   0.00000  Uiso   1.00
Si37   Si    0.66605   0.13115   0.93523   0.00000  Uiso   1.00
Si38   Si    0.73610   0.16852   0.53904   0.00000  Uiso   1.00
Si39   Si    0.68136   0.63333   0.14365   0.00000  Uiso   1.00
Si40   Si    0.68380   0.51910   0.56016   0.00000  Uiso   1.00
Si41   Si    0.79885   0.32770   0.65657   0.00000  Uiso   1.00
Si42   Si    0.68801   0.51213   0.85817   0.00000  Uiso   1.00
Si43   Si    0.83829   0.51310   0.66562   0.00000  Uiso   1.00
Si44   Si    0.85457   0.71609   0.07925   0.00000  Uiso   1.00
Si45   Si    0.87017   0.83969  -0.01737   0.00000  Uiso   1.00
Si46   Si    0.70962   0.61969   0.45106   0.00000  Uiso   1.00
Si47   Si    0.49843   0.82098   0.47963   0.00000  Uiso   1.00
Si48   Si    0.85349   0.80239   0.46892   0.00000  Uiso   1.00
Si49   Si    0.83484   0.64231   0.79610   0.00000  Uiso   1.00
Si50   Si    0.69154   0.80938   0.87125   0.00000  Uiso   1.00
Si51   Si    0.83295   0.76809   0.70545   0.00000  Uiso   1.00
C52    C     0.25879   0.11494   0.13533   0.00000  Uiso   1.00
C53    C     0.18029   0.03273   0.97922   0.00000  Uiso   1.00
C54    C     0.36658   0.09124   0.33177   0.00000  Uiso   1.00
C55    C     0.23982   1.04751   0.42652   0.00000  Uiso   1.00
C56    C     0.16101   0.99058   0.27010   0.00000  Uiso   1.00
O57    O     0.09248   0.16134   0.26905   0.00000  Uiso   1.00
O58    O     0.23802   0.17129   0.35720   0.00000  Uiso   1.00
C59    C     0.07334   0.13851   0.60637   0.00000  Uiso   1.00
C60    C     0.07422   0.18684   0.75592   0.00000  Uiso   1.00
C61    C     0.26645   0.22969   0.71152   0.00000  Uiso   1.00
O62    O    -0.02015   0.22487   0.21559   0.00000  Uiso   1.00
C63    C     0.11295   0.16182   0.06367   0.00000  Uiso   1.00
C64    C    -0.05349   0.37202   0.19273   0.00000  Uiso   1.00
C65    C     0.08404   0.38538   0.31887   0.00000  Uiso   1.00
C66    C     0.24863   0.27836   0.51616   0.00000  Uiso   1.00
O67    O     0.17668   0.29293   0.38405   0.00000  Uiso   1.00
C68    C     0.09848   0.34497   0.50044   0.00000  Uiso   1.00
C69    C     0.01126   0.63781   0.55727   0.00000  Uiso   1.00
C70    C     0.91580   0.45959   0.49361   0.00000  Uiso   1.00
C71    C     0.10881   0.40306   0.79904   0.00000  Uiso   1.00
O72    O     0.14951   0.31356   0.68123   0.00000  Uiso   1.00
O73    O     0.09677   0.53140   0.58865   0.00000  Uiso   1.00
O74    O     0.15700   0.46551   0.68103   0.00000  Uiso   1.00
C75    C     0.08486   0.56898  -0.03203   0.00000  Uiso   1.00
C76    C     0.28456   0.61076   0.04566   0.00000  Uiso   1.00
C77    C     0.16002   0.69667   0.11530   0.00000  Uiso   1.00
O78    O     0.22588   0.72540  -0.01287   0.00000  Uiso   1.00
C79    C     0.22781   0.88760   0.04881   0.00000  Uiso   1.00
C80    C     0.10810   0.65138   0.78961   0.00000  Uiso   1.00
O81    O     0.23035   0.62997   0.69845   0.00000  Uiso   1.00
O82    O     0.09841   0.77848   0.93894   0.00000  Uiso   1.00
C83    C     0.06161   0.85518   0.84092   0.00000  Uiso   1.00
C84    C     0.17431   0.83086   0.58066   0.00000  Uiso   1.00
O85    O     0.18758   0.75888   0.70062   0.00000  Uiso   1.00
C86    C     0.22256   0.93167   0.72253   0.00000  Uiso   1.00
C87    C     0.35443   0.84402   0.65890   0.00000  Uiso   1.00
C88    C     0.47765   0.01424   0.06342   0.00000  Uiso   1.00
C89    C     0.59860  -0.02951   0.17568   0.00000  Uiso   1.00
C90    C     0.42761   0.84060   0.10173   0.00000  Uiso   1.00
C91    C     0.55026   0.25369   0.15500   0.00000  Uiso   1.00
C92    C     0.50707   0.40768   0.20973   0.00000  Uiso   1.00
C93    C     0.28658   0.29108   0.27605   0.00000  Uiso   1.00
O94    O     0.60921   0.34934   0.29798   0.00000  Uiso   1.00
C95    C     0.61127   0.18535   0.30497   0.00000  Uiso   1.00
C96    C     0.78757   0.34618   0.33618   0.00000  Uiso   1.00
C97    C     0.56517   0.93323   0.78851   0.00000  Uiso   1.00
C98    C     0.25068   0.22760   0.90172   0.00000  Uiso   1.00
C99    C     0.40182   0.16469   0.94968   0.00000  Uiso   1.00
C100   C     0.44116   0.34834   1.00282   0.00000  Uiso   1.00
O101   O     0.29746   0.21298   1.03629   0.00000  Uiso   1.00
C102   C     0.40646   0.08837   0.65545   0.00000  Uiso   1.00
O103   O     0.45573   0.03039   0.77042   0.00000  Uiso   1.00
C104   C     0.53022   0.20749   0.77726   0.00000  Uiso   1.00
C105   C     0.59402   0.07940   0.68402   0.00000  Uiso   1.00
O106   O     0.69276   0.42013   0.20842   0.00000  Uiso   1.00
C107   C     0.86639   0.54582   0.21468   0.00000  Uiso   1.00
C108   C     0.72432   0.43608   0.07385   0.00000  Uiso   1.00
O109   O     0.11610   0.34732   0.18327   0.00000  Uiso   1.00
C110   C     0.29437   0.42530   0.13797   0.00000  Uiso   1.00
C111   C     0.10684   0.38500   0.04929   0.00000  Uiso   1.00
C112   C     0.17930   0.52374   0.19089   0.00000  Uiso   1.00
C113   C     0.52598   0.24683   0.50432   0.00000  Uiso   1.00
O114   O     0.64971   0.33115   0.41923   0.00000  Uiso   1.00
C115   C     0.47569   0.35797   0.41650   0.00000  Uiso   1.00
O116   O     0.28391   0.43651   0.48503   0.00000  Uiso   1.00
O117   O     0.25898   0.51860   0.60144   0.00000  Uiso   1.00
O118   O     0.29286   0.45207   0.75846   0.00000  Uiso   1.00
C119   C     0.39814   0.45222   0.88005   0.00000  Uiso   1.00
C120   C     0.31581   0.58789   0.86581   0.00000  Uiso   1.00
O121   O     0.43490   0.55671   0.57681   0.00000  Uiso   1.00
C122   C     0.47182   0.42421   0.62343   0.00000  Uiso   1.00
C123   C     0.54307   0.73486  -0.01776   0.00000  Uiso   1.00
O124   O     0.57181   0.90313   0.02807   0.00000  Uiso   1.00
O125   O     0.31306   0.60073   0.51105   0.00000  Uiso   1.00
C126   C     0.34130   0.56670   0.37155   0.00000  Uiso   1.00
C127   C     0.08792   0.62876   0.33406   0.00000  Uiso   1.00
O128   O     0.25685   0.68254   0.42763   0.00000  Uiso   1.00
C129   C     0.17695   0.81254   0.41574   0.00000  Uiso   1.00
C130   C     0.27105   0.75242   0.31070   0.00000  Uiso   1.00
O131   O     0.47157   0.56956   0.80029   0.00000  Uiso   1.00
O132   O     0.55866   0.60156   0.69663   0.00000  Uiso   1.00
C133   C     0.46482   0.70009   0.73398   0.00000  Uiso   1.00
O134   O     0.30340   0.75887   0.80486   0.00000  Uiso   1.00
O135   O     0.43647   0.80793   0.91202   0.00000  Uiso   1.00
O136   O     0.40853   0.92378   0.85734   0.00000  Uiso   1.00
O137   O     0.28179   0.84076   0.92301   0.00000  Uiso   1.00
O138   O     0.95610   0.06564   0.15117   0.00000  Uiso   1.00
C139   C     0.79080   0.91797   0.13210   0.00000  Uiso   1.00
C140   C     0.90919   0.19416   1.04310   0.00000  Uiso   1.00
O141   O     0.80952   0.03168   0.05672   0.00000  Uiso   1.00
C142   C     0.74913   0.15205   0.12784   0.00000  Uiso   1.00
O143   O     0.90646   0.10156   0.26865   0.00000  Uiso   1.00
C144   C     0.75802   0.00629   0.33326   0.00000  Uiso   1.00
C145   C     0.91872  -0.05029   0.30636   0.00000  Uiso   1.00
C146   C     0.95739   0.10830   0.40969   0.00000  Uiso   1.00
C147   C     0.91935   0.01316   0.86343   0.00000  Uiso   1.00
O148   O     0.56463   0.06286   0.89165   0.00000  Uiso   1.00
O149   O     0.71354   0.08950   0.98324   0.00000  Uiso   1.00
C150   C     0.65678   0.22246   0.99028   0.00000  Uiso   1.00
C151   C     0.61147   0.08957   0.49817   0.00000  Uiso   1.00
C152   C     0.79228   0.10722   0.57950   0.00000  Uiso   1.00
C153   C     0.77808  -0.03973   0.72391   0.00000  Uiso   1.00
C154   C     0.79977   0.21939   0.47293   0.00000  Uiso   1.00
O155   O     0.69730   0.56018   0.17552   0.00000  Uiso   1.00
C156   C     0.69787   0.72080   0.22328   0.00000  Uiso   1.00
C157   C     0.55682   0.58823   0.09833   0.00000  Uiso   1.00
O158   O     0.63599   0.41837   0.53290   0.00000  Uiso   1.00
O159   O     0.60486   0.55203   0.58526   0.00000  Uiso   1.00
C160   C     0.75138   0.17877   0.87923   0.00000  Uiso   1.00
C161   C     0.78199   0.29545   0.74133   0.00000  Uiso   1.00
O162   O     0.73610   0.25068   0.59349   0.00000  Uiso   1.00
C163   C     0.92999   0.34827   0.65166   0.00000  Uiso   1.00
C164   C     0.59210   0.43093   0.78253   0.00000  Uiso   1.00
C165   C     0.76710   0.45507   0.87657   0.00000  Uiso   1.00
C166   C     0.64497   0.55161   0.92743   0.00000  Uiso   1.00
O167   O     0.94219   0.53237   0.64049   0.00000  Uiso   1.00
O168   O     0.77519   0.54354   0.62114   0.00000  Uiso   1.00
O169   O     0.78744   0.41679   0.66234   0.00000  Uiso   1.00
O170   O     0.75675   0.66179   0.09512   0.00000  Uiso   1.00
C171   C     0.90884   0.64238   0.03262   0.00000  Uiso   1.00
C172   C     0.94185   0.78751   0.15878   0.00000  Uiso   1.00
O173   O     0.96421   0.83959   0.95658   0.00000  Uiso   1.00
O174   O     0.83656   0.77641   0.03137   0.00000  Uiso   1.00
O175   O     0.90272   0.93412   0.03211   0.00000  Uiso   1.00
O176   O     0.72404   0.56587   0.50215   0.00000  Uiso   1.00
C177   C     0.58951   0.61481   0.44704   0.00000  Uiso   1.00
C178   C     0.72699   0.57788   0.36476   0.00000  Uiso   1.00
O179   O     0.43567   0.72461   0.46986   0.00000  Uiso   1.00
C180   C     0.43415   0.89163   0.50229   0.00000  Uiso   1.00
C181   C     0.59949   0.85207   0.55395   0.00000  Uiso   1.00
C182   C     0.92290   0.77647   0.40232   0.00000  Uiso   1.00
C183   C     0.77757   0.84725   0.42719   0.00000  Uiso   1.00
O184   O     0.78187   0.71739   0.48256   0.00000  Uiso   1.00
C185   C     0.92921   0.87517   0.54625   0.00000  Uiso   1.00
O186   O     0.74641   0.59420   0.82779   0.00000  Uiso   1.00
O187   O     0.85619   0.57150   0.74304   0.00000  Uiso   1.00
O188   O     0.93029   0.69981   0.85331   0.00000  Uiso   1.00
O189   O     0.62760   0.71191   0.82309   0.00000  Uiso   1.00
O190   O     0.78109   0.80932   0.91896   0.00000  Uiso   1.00
O191   O     0.73298   0.87485   0.82611   0.00000  Uiso   1.00
O192   O     0.62174   0.84449   0.91163   0.00000  Uiso   1.00
C193   C     0.93279   0.76773   0.66815   0.00000  Uiso   1.00
C194   C     0.54221   0.83157   0.39671   0.00000  Uiso   1.00
C195   C     0.72941   0.74897   0.63945   0.00000  Uiso   1.00
O196   O     0.80721   0.69886   0.74785   0.00000  Uiso   1.00
O197   O     0.86121   0.85607   0.75837   0.00000  Uiso   1.00
H198   H     0.20588   0.08797   0.16825   0.00000  Uiso   1.00
H199   H     0.31535   0.17995   0.16905   0.00000  Uiso   1.00
H200   H     0.30219   0.07355   0.11817   0.00000  Uiso   1.00
H201   H     0.16245   0.04756   0.92867   0.00000  Uiso   1.00
H202   H     0.11913  -0.01804   0.99047   0.00000  Uiso   1.00
H203   H     0.23981   0.00976   0.97388   0.00000  Uiso   1.00
H204   H     0.37611   0.03575   0.34381   0.00000  Uiso   1.00
H205   H     0.42686   0.15152   0.36522   0.00000  Uiso   1.00
H206   H     0.38131   0.09443   0.27671   0.00000  Uiso   1.00
H207   H     0.26503   0.99573   0.42715   0.00000  Uiso   1.00
H208   H     0.16811   1.02741   0.44092   0.00000  Uiso   1.00
H209   H     0.28528   1.10193   0.47312   0.00000  Uiso   1.00
H210   H     0.20219   0.99184   0.22617   0.00000  Uiso   1.00
H211   H     0.09700   0.99825   0.25564   0.00000  Uiso   1.00
H212   H     0.13481   0.93051   0.28548   0.00000  Uiso   1.00
H213   H     0.01100   0.14978   0.59562   0.00000  Uiso   1.00
H214   H     0.04971   0.07357   0.61460   0.00000  Uiso   1.00
H215   H     0.10830   0.14408   0.56538   0.00000  Uiso   1.00
H216   H     0.08619   0.13019   0.76681   0.00000  Uiso   1.00
H217   H    -0.00063   0.17137   0.73294   0.00000  Uiso   1.00
H218   H     0.10523   0.24144   0.80141   0.00000  Uiso   1.00
H219   H     0.31581   0.28714   0.75370   0.00000  Uiso   1.00
H220   H     0.29596   0.22991   0.66244   0.00000  Uiso   1.00
H221   H     0.26727   0.17570   0.72980   0.00000  Uiso   1.00
H222   H     0.04773   0.11005   0.02593   0.00000  Uiso   1.00
H223   H     0.12872   0.21495   0.03810   0.00000  Uiso   1.00
H224   H     0.10434   0.17971   0.11838   0.00000  Uiso   1.00
H225   H    -0.12715   0.33860   0.19646   0.00000  Uiso   1.00
H226   H    -0.05130   0.37868   0.13759   0.00000  Uiso   1.00
H227   H    -0.02894   0.43426   0.22748   0.00000  Uiso   1.00
H228   H     0.08609   0.44822   0.32105   0.00000  Uiso   1.00
H229   H     0.15622   0.39115   0.32623   0.00000  Uiso   1.00
H230   H     0.04634   0.35752   0.35665   0.00000  Uiso   1.00
H231   H     0.19692   0.21379   0.49179   0.00000  Uiso   1.00
H232   H     0.25451   0.30324   0.57398   0.00000  Uiso   1.00
H233   H     0.31825   0.27914   0.50002   0.00000  Uiso   1.00
H234   H     0.11221   0.36862   0.55644   0.00000  Uiso   1.00
H235   H     0.04839   0.27931   0.48710   0.00000  Uiso   1.00
H236   H     0.06513   0.38128   0.47378   0.00000  Uiso   1.00
H237   H     0.05744   0.64530   0.51663   0.00000  Uiso   1.00
H238   H     0.03945   0.68121   0.60643   0.00000  Uiso   1.00
H239   H    -0.05694   0.63768   0.53468   0.00000  Uiso   1.00
H240   H     0.96362   0.47161   0.45741   0.00000  Uiso   1.00
H241   H     0.85576   0.47269   0.47497   0.00000  Uiso   1.00
H242   H     0.90047   0.39650   0.49827   0.00000  Uiso   1.00
H243   H     0.10283   0.46724   0.81395   0.00000  Uiso   1.00
H244   H     0.14357   0.38566   0.84106   0.00000  Uiso   1.00
H245   H     0.03526   0.35195   0.77677   0.00000  Uiso   1.00
H246   H     0.02890   0.58941  -0.04735   0.00000  Uiso   1.00
H247   H     0.05335   0.51456  -0.00698   0.00000  Uiso   1.00
H248   H     0.11507   0.54908  -0.07579   0.00000  Uiso   1.00
H249   H     0.25649   0.54724   0.05666   0.00000  Uiso   1.00
H250   H     0.34207   0.65131   0.09171   0.00000  Uiso   1.00
H251   H     0.31627   0.59272   0.00090   0.00000  Uiso   1.00
H252   H     0.09503   0.64238   0.12043   0.00000  Uiso   1.00
H253   H     0.14798   0.75710   0.12001   0.00000  Uiso   1.00
H254   H     0.22158   0.70673   0.15579   0.00000  Uiso   1.00
H255   H     0.17279   0.91107   0.05826   0.00000  Uiso   1.00
H256   H     0.28391   0.94719   0.04402   0.00000  Uiso   1.00
H257   H     0.25304   0.87481   0.09385   0.00000  Uiso   1.00
H258   H     0.07240   0.69371   0.79965   0.00000  Uiso   1.00
H259   H     0.13545   0.64475   0.84348   0.00000  Uiso   1.00
H260   H     0.05715   0.58927   0.76087   0.00000  Uiso   1.00
H261   H     0.04974   0.81113   0.78828   0.00000  Uiso   1.00
H262   H     0.13715   0.89254   0.86219   0.00000  Uiso   1.00
H263   H     0.02747   0.89759   0.83527   0.00000  Uiso   1.00
H264   H     0.10534   0.83242   0.58766   0.00000  Uiso   1.00
H265   H     0.17205   0.77139   0.54777   0.00000  Uiso   1.00
H266   H     0.20832   0.88623   0.56147   0.00000  Uiso   1.00
H267   H     0.25976   0.94899   0.77466   0.00000  Uiso   1.00
H268   H     0.14993   0.92228   0.72489   0.00000  Uiso   1.00
H269   H     0.24973   0.98750   0.70095   0.00000  Uiso   1.00
H270   H     0.35172   0.79031   0.61791   0.00000  Uiso   1.00
H271   H     0.39046   0.83868   0.70678   0.00000  Uiso   1.00
H272   H     0.38514   0.90395   0.64318   0.00000  Uiso   1.00
H273   H     0.45064   0.03996   0.10621   0.00000  Uiso   1.00
H274   H     0.42486  -0.01672   0.01472   0.00000  Uiso   1.00
H275   H     0.53972   0.06563   0.05251   0.00000  Uiso   1.00
H276   H     0.66892   0.02128   0.17967   0.00000  Uiso   1.00
H277   H     0.61337  -0.08263   0.18274   0.00000  Uiso   1.00
H278   H     0.55907  -0.00540   0.21310   0.00000  Uiso   1.00
H279   H     0.46103   0.80989   0.13014   0.00000  Uiso   1.00
H280   H     0.38879   0.79587   0.04795   0.00000  Uiso   1.00
H281   H     0.37936   0.86324   0.13220   0.00000  Uiso   1.00
H282   H     0.60683   0.22681   0.16036   0.00000  Uiso   1.00
H283   H     0.54737   0.26448   0.10087   0.00000  Uiso   1.00
H284   H     0.48469   0.20365   0.16383   0.00000  Uiso   1.00
H285   H     0.51603   0.45993   0.25084   0.00000  Uiso   1.00
H286   H     0.43766   0.35853   0.20259   0.00000  Uiso   1.00
H287   H     0.51149   0.43103   0.16134   0.00000  Uiso   1.00
H288   H     0.33971   0.26645   0.26926   0.00000  Uiso   1.00
H289   H     0.31814   0.35929   0.30277   0.00000  Uiso   1.00
H290   H     0.25236   0.28172   0.22280   0.00000  Uiso   1.00
H291   H     0.54270   0.15387   0.26708   0.00000  Uiso   1.00
H292   H     0.62474   0.15632   0.34632   0.00000  Uiso   1.00
H293   H     0.65934   0.18062   0.26800   0.00000  Uiso   1.00
H294   H     0.82189   0.31858   0.36683   0.00000  Uiso   1.00
H295   H     0.81255   0.41142   0.36060   0.00000  Uiso   1.00
H296   H     0.79330   0.33668   0.28206   0.00000  Uiso   1.00
H297   H     0.63158   0.97870   0.79109   0.00000  Uiso   1.00
H298   H     0.53696   0.90190   0.73358   0.00000  Uiso   1.00
H299   H     0.56970   0.89109   0.81716   0.00000  Uiso   1.00
H300   H     0.18615   0.16681   0.88475   0.00000  Uiso   1.00
H301   H     0.28561   0.23562   0.85594   0.00000  Uiso   1.00
H302   H     0.22324   0.27675   0.92158   0.00000  Uiso   1.00
H303   H     0.45213   0.18604   0.91612   0.00000  Uiso   1.00
H304   H     0.34345   0.09920   0.92146   0.00000  Uiso   1.00
H305   H     0.42998   0.16020   1.00258   0.00000  Uiso   1.00
H306   H     0.41096   0.39809   1.01108   0.00000  Uiso   1.00
H307   H     0.48351   0.35973   0.96104   0.00000  Uiso   1.00
H308   H     0.49246   0.34885   1.04802   0.00000  Uiso   1.00
H309   H     0.37489   0.03222   0.61216   0.00000  Uiso   1.00
H310   H     0.44025   0.14130   0.63171   0.00000  Uiso   1.00
H311   H     0.35356   0.10185   0.68203   0.00000  Uiso   1.00
H312   H     0.59245   0.22815   0.81784   0.00000  Uiso   1.00
H313   H     0.46378   0.20197   0.79949   0.00000  Uiso   1.00
H314   H     0.54080   0.24672   0.73831   0.00000  Uiso   1.00
H315   H     0.56744   0.00930   0.65239   0.00000  Uiso   1.00
H316   H     0.65387   0.09238   0.72521   0.00000  Uiso   1.00
H317   H     0.61039   0.11805   0.64670   0.00000  Uiso   1.00
H318   H     0.88931   0.61293   0.21896   0.00000  Uiso   1.00
H319   H     0.91585   0.51623   0.18909   0.00000  Uiso   1.00
H320   H     0.86489   0.53153   0.26653   0.00000  Uiso   1.00
H321   H     0.66095   0.37534   0.06332   0.00000  Uiso   1.00
H322   H     0.78388   0.41798   0.07216   0.00000  Uiso   1.00
H323   H     0.72010   0.47735   0.03751   0.00000  Uiso   1.00
H324   H     0.28486   0.35526   0.11718   0.00000  Uiso   1.00
H325   H     0.33195   0.45117   0.19351   0.00000  Uiso   1.00
H326   H     0.33012   0.47250   0.10615   0.00000  Uiso   1.00
H327   H     0.15546   0.41356   0.01430   0.00000  Uiso   1.00
H328   H     0.04402   0.39993   0.04692   0.00000  Uiso   1.00
H329   H     0.07814   0.31314   0.02977   0.00000  Uiso   1.00
H330   H     0.22580   0.55106   0.24074   0.00000  Uiso   1.00
H331   H     0.10877   0.51582   0.19040   0.00000  Uiso   1.00
H332   H     0.20789   0.57292   0.16226   0.00000  Uiso   1.00
H333   H     0.45788   0.24307   0.52041   0.00000  Uiso   1.00
H334   H     0.57484   0.25458   0.54946   0.00000  Uiso   1.00
H335   H     0.51171   0.18104   0.46679   0.00000  Uiso   1.00
H336   H     0.44518   0.39255   0.44979   0.00000  Uiso   1.00
H337   H     0.42397   0.29580   0.38467   0.00000  Uiso   1.00
H338   H     0.50607   0.39809   0.38034   0.00000  Uiso   1.00
H339   H     0.42909   0.47847   0.93547   0.00000  Uiso   1.00
H340   H     0.45013   0.42581   0.85666   0.00000  Uiso   1.00
H341   H     0.32866   0.40731   0.88412   0.00000  Uiso   1.00
H342   H     0.28667   0.61420   0.82664   0.00000  Uiso   1.00
H343   H     0.36273   0.63933   0.91324   0.00000  Uiso   1.00
H344   H     0.25525   0.54215   0.88311   0.00000  Uiso   1.00
H345   H     0.42852   0.41315   0.66246   0.00000  Uiso   1.00
H346   H     0.53416   0.40785   0.63626   0.00000  Uiso   1.00
H347   H     0.43113   0.38293   0.57125   0.00000  Uiso   1.00
H348   H     0.49134   0.71260   0.01642   0.00000  Uiso   1.00
H349   H     0.61655   0.75255   0.01146   0.00000  Uiso   1.00
H350   H     0.53110   0.68959  -0.06323   0.00000  Uiso   1.00
H351   H     0.35772   0.59488   0.32881   0.00000  Uiso   1.00
H352   H     0.27152   0.50968   0.35756   0.00000  Uiso   1.00
H353   H     0.39798   0.54794   0.39072   0.00000  Uiso   1.00
H354   H     0.09928   0.57381   0.31318   0.00000  Uiso   1.00
H355   H     0.05991   0.64547   0.28895   0.00000  Uiso   1.00
H356   H     0.04001   0.60888   0.37179   0.00000  Uiso   1.00
H357   H     0.23702   0.87005   0.44662   0.00000  Uiso   1.00
H358   H     0.12189   0.79913   0.44693   0.00000  Uiso   1.00
H359   H     0.15370   0.83126   0.37344   0.00000  Uiso   1.00
H360   H     0.29289   0.69936   0.28407   0.00000  Uiso   1.00
H361   H     0.33865   0.80805   0.33162   0.00000  Uiso   1.00
H362   H     0.22220   0.76242   0.27132   0.00000  Uiso   1.00
H363   H     0.41121   0.65314   0.68393   0.00000  Uiso   1.00
H364   H     0.51028   0.75783   0.71838   0.00000  Uiso   1.00
H365   H     0.42909   0.71989   0.77362   0.00000  Uiso   1.00
H366   H     0.82739   0.88199   0.15554   0.00000  Uiso   1.00
H367   H     0.72459   0.87532   0.09525   0.00000  Uiso   1.00
H368   H     0.78197   0.96066   0.17600   0.00000  Uiso   1.00
H369   H     0.90833   0.25501   1.03311   0.00000  Uiso   1.00
H370   H     0.92477   0.15824   0.99385   0.00000  Uiso   1.00
H371   H     0.96298   0.20804   1.09037   0.00000  Uiso   1.00
H372   H     0.74638   0.21270   0.12656   0.00000  Uiso   1.00
H373   H     0.79738   0.15594   0.17602   0.00000  Uiso   1.00
H374   H     0.67691   0.11032   0.11672   0.00000  Uiso   1.00
H375   H     0.71490  -0.05186   0.29322   0.00000  Uiso   1.00
H376   H     0.72332   0.04822   0.31849   0.00000  Uiso   1.00
H377   H     0.74753   0.00123   0.38461   0.00000  Uiso   1.00
H378   H     0.98645  -0.03955   0.34005   0.00000  Uiso   1.00
H379   H     0.94517  -0.05439   0.25561   0.00000  Uiso   1.00
H380   H     0.85901  -0.10314   0.31206   0.00000  Uiso   1.00
H381   H     1.03075   0.15702   0.40611   0.00000  Uiso   1.00
H382   H     0.96517   0.07385   0.44822   0.00000  Uiso   1.00
H383   H     0.91286   0.13914   0.43202   0.00000  Uiso   1.00
H384   H     0.97572   0.05076   0.83829   0.00000  Uiso   1.00
H385   H     0.94922  -0.01963   0.89495   0.00000  Uiso   1.00
H386   H     0.88577   0.05130   0.89396   0.00000  Uiso   1.00
H387   H     0.61917   0.25064   0.96059   0.00000  Uiso   1.00
H388   H     0.72320   0.26999   1.01897   0.00000  Uiso   1.00
H389   H     0.61339   0.19423   1.02911   0.00000  Uiso   1.00
H390   H     0.55561   0.09706   0.52485   0.00000  Uiso   1.00
H391   H     0.60805   0.02588   0.50131   0.00000  Uiso   1.00
H392   H     0.59434   0.08280   0.44188   0.00000  Uiso   1.00
H393   H     0.79530   0.05138   0.54016   0.00000  Uiso   1.00
H394   H     0.74802   0.09431   0.62063   0.00000  Uiso   1.00
H395   H     0.86767   0.15378   0.59894   0.00000  Uiso   1.00
H396   H     0.76900   0.01973   0.74656   0.00000  Uiso   1.00
H397   H     0.70868  -0.08515   0.69557   0.00000  Uiso   1.00
H398   H     0.84143  -0.02048   0.69730   0.00000  Uiso   1.00
H399   H     0.76747   0.26457   0.46309   0.00000  Uiso   1.00
H400   H     0.80166   0.17914   0.42242   0.00000  Uiso   1.00
H401   H     0.87557   0.25976   0.49751   0.00000  Uiso   1.00
H402   H     0.76803   0.73241   0.25721   0.00000  Uiso   1.00
H403   H     0.64315   0.70076   0.25478   0.00000  Uiso   1.00
H404   H     0.70604   0.78081   0.20823   0.00000  Uiso   1.00
H405   H     0.53926   0.61715   0.05571   0.00000  Uiso   1.00
H406   H     0.50518   0.58564   0.13048   0.00000  Uiso   1.00
H407   H     0.54258   0.52210   0.06761   0.00000  Uiso   1.00
H408   H     0.81491   0.23372   0.90453   0.00000  Uiso   1.00
H409   H     0.72574   0.21346   0.84629   0.00000  Uiso   1.00
H410   H     0.77174   0.13269   0.84439   0.00000  Uiso   1.00
H411   H     0.70649   0.27907   0.74750   0.00000  Uiso   1.00
H412   H     0.83086   0.35292   0.78227   0.00000  Uiso   1.00
H413   H     0.80275   0.23928   0.73962   0.00000  Uiso   1.00
H414   H     0.97764   0.41114   0.68817   0.00000  Uiso   1.00
H415   H     0.94824   0.35439   0.59965   0.00000  Uiso   1.00
H416   H     0.95136   0.29812   0.66502   0.00000  Uiso   1.00
H417   H     0.62921   0.41409   0.73911   0.00000  Uiso   1.00
H418   H     0.54945   0.46456   0.76714   0.00000  Uiso   1.00
H419   H     0.54792   0.37920   0.80288   0.00000  Uiso   1.00
H420   H     0.83437   0.47853   0.85526   0.00000  Uiso   1.00
H421   H     0.72999   0.38179   0.85748   0.00000  Uiso   1.00
H422   H     0.78554   0.47082   0.93338   0.00000  Uiso   1.00
H423   H     0.58101   0.56146   0.90687   0.00000  Uiso   1.00
H424   H     0.70299   0.60555   0.96450   0.00000  Uiso   1.00
H425   H     0.61365   0.49757   0.94793   0.00000  Uiso   1.00
H426   H     0.98379   0.67384   0.05207   0.00000  Uiso   1.00
H427   H     0.89590   0.63604  -0.02406   0.00000  Uiso   1.00
H428   H     0.87625   0.57867   0.04230   0.00000  Uiso   1.00
H429   H     0.90370   0.79333   0.19953   0.00000  Uiso   1.00
H430   H     0.98291   0.84932   0.14644   0.00000  Uiso   1.00
H431   H     0.99724   0.76397   0.17409   0.00000  Uiso   1.00
H432   H     0.57446   0.65025   0.40978   0.00000  Uiso   1.00
H433   H     0.57953   0.64282   0.49657   0.00000  Uiso   1.00
H434   H     0.53518   0.54696   0.42615   0.00000  Uiso   1.00
H435   H     0.71232   0.61064   0.32467   0.00000  Uiso   1.00
H436   H     0.68113   0.51134   0.34449   0.00000  Uiso   1.00
H437   H     0.80446   0.57854   0.36944   0.00000  Uiso   1.00
H438   H     0.47026   0.94645   0.55077   0.00000  Uiso   1.00
H439   H     0.36236   0.85217   0.50691   0.00000  Uiso   1.00
H440   H     0.42087   0.91606   0.45537   0.00000  Uiso   1.00
H441   H     0.63947   0.91750   0.56112   0.00000  Uiso   1.00
H442   H     0.64591   0.81715   0.54339   0.00000  Uiso   1.00
H443   H     0.57869   0.84664   0.60485   0.00000  Uiso   1.00
H444   H     0.98333   0.83928   0.39429   0.00000  Uiso   1.00
H445   H     0.86875   0.73981   0.35466   0.00000  Uiso   1.00
H446   H     0.95434   0.73297   0.41870   0.00000  Uiso   1.00
H447   H     0.82562   0.90059   0.41009   0.00000  Uiso   1.00
H448   H     0.74852   0.87981   0.46809   0.00000  Uiso   1.00
H449   H     0.71859   0.79493   0.38358   0.00000  Uiso   1.00
H450   H     0.88400   0.87861   0.58639   0.00000  Uiso   1.00
H451   H     0.96711   0.94029   0.53958   0.00000  Uiso   1.00
H452   H     0.97649   0.84674   0.56592   0.00000  Uiso   1.00
H453   H     0.95070   0.71665   0.68162   0.00000  Uiso   1.00
H454   H     0.99423   0.83565   0.68500   0.00000  Uiso   1.00
H455   H     0.90698   0.74531   0.61089   0.00000  Uiso   1.00
H456   H     0.48544   0.82675   0.35852   0.00000  Uiso   1.00
H457   H     0.55663   0.77424   0.37496   0.00000  Uiso   1.00
H458   H     0.60096   0.89232   0.40336   0.00000  Uiso   1.00
H459   H     0.72594   0.69780   0.59609   0.00000  Uiso   1.00
H460   H     0.74007   0.81197   0.62636   0.00000  Uiso   1.00
H461   H     0.66265   0.72720   0.66063   0.00000  Uiso   1.00
loop_
_geom_bond_atom_site_label_1
_geom_bond_atom_site_label_2
_geom_bond_distance
_geom_bond_site_symmetry_2
_ccdc_geom_bond_type
Si1    O57     1.624   .     S
Si1    O62     1.585   .     S
Si1    O138    1.657   1_455 S
Si1    O143    1.607   1_455 S
Si2    C52     1.833   .     S
Si2    C63     1.841   .     S
Si2    C53     1.920   1_554 S
Si2    O101    1.626   1_554 S
Si3    C54     1.843   .     S
Si3    O58     1.588   .     S
Si3    C55     1.840   1_545 S
Si3    C56     1.909   1_545 S
Si4    O57     1.637   .     S
Si4    O58     1.604   .     S
Si4    O67     1.603   .     S
Si4    C93     1.951   .     S
Si5    C59     1.889   .     S
Si5    C60     1.834   .     S
Si5    C61     1.881   .     S
Si5    O72     1.589   .     S
Si6    O62     1.615   .     S
Si6    C64     1.888   .     S
Si6    C65     1.865   .     S
Si6    O109    1.608   .     S
Si7    C66     1.834   .     S
Si7    O67     1.647   .     S
Si7    C68     1.837   .     S
Si7    O116    1.629   .     S
Si8    C69     1.823   .     S
Si8    O73     1.587   .     S
Si8    C70     1.858   1_455 S
Si8    O167    1.614   1_455 S
Si9    C71     1.903   .     S
Si9    O72     1.591   .     S
Si9    O74     1.593   .     S
Si9    O118    1.605   .     S
Si10   O73     1.606   .     S
Si10   O74     1.565   .     S
Si10   O81     1.619   .     S
Si10   O117    1.552   .     S
Si11   C75     1.869   .     S
Si11   C76     1.917   .     S
Si11   C77     1.897   .     S
Si11   O78     1.584   .     S
Si12   O78     1.557   .     S
Si12   C79     1.824   .     S
Si12   O82     1.638   1_554 S
Si12   O137    1.587   1_554 S
Si13   C80     1.910   .     S
Si13   O81     1.556   .     S
Si13   O85     1.564   .     S
Si13   O134    1.610   .     S
Si14   O82     1.617   .     S
Si14   C83     1.835   .     S
Si14   O173    1.659   1_455 S
Si14   O188    1.602   1_455 S
Si15   C84     1.862   .     S
Si15   O85     1.638   .     S
Si15   C86     1.841   .     S
Si15   C87     1.818   .     S
Si16   C88     1.872   .     S
Si16   C89     1.887   .     S
Si16   C90     1.874   1_545 S
Si16   O124    1.564   1_545 S
Si17   C91     1.884   .     S
Si17   C92     1.848   .     S
Si17   O94     1.595   .     S
Si17   O106    1.566   .     S
Si18   O94     1.543   .     S
Si18   C95     1.924   .     S
Si18   C96     1.880   .     S
Si18   O114    1.567   .     S
Si19   O103    1.658   .     S
Si19   O148    1.618   .     S
Si19   C97     1.863   1_545 S
Si19   O136    1.589   1_545 S
Si20   C98     1.862   .     S
Si20   C99     1.832   .     S
Si20   C100    1.850   .     S
Si20   O101    1.590   .     S
Si21   C102    1.802   .     S
Si21   O103    1.598   .     S
Si21   C104    1.904   .     S
Si21   C105    1.838   .     S
Si22   O106    1.626   .     S
Si22   C107    1.814   .     S
Si22   C108    1.914   .     S
Si22   O155    1.560   .     S
Si23   O109    1.635   .     S
Si23   C110    1.852   .     S
Si23   C111    1.854   .     S
Si23   C112    1.913   .     S
Si24   C113    1.890   .     S
Si24   O114    1.585   .     S
Si24   C115    1.923   .     S
Si24   O158    1.574   .     S
Si25   O116    1.654   .     S
Si25   O117    1.601   .     S
Si25   O121    1.595   .     S
Si25   O125    1.596   .     S
Si26   O118    1.636   .     S
Si26   C119    1.888   .     S
Si26   C120    1.873   .     S
Si26   O131    1.585   .     S
Si27   O121    1.629   .     S
Si27   C122    1.823   .     S
Si27   O132    1.601   .     S
Si27   O159    1.602   .     S
Si28   C123    1.859   .     S
Si28   O124    1.621   .     S
Si28   O135    1.602   1_554 S
Si28   O192    1.587   1_554 S
Si29   O125    1.621   .     S
Si29   C126    1.897   .     S
Si29   O128    1.599   .     S
Si29   O179    1.589   .     S
Si30   C127    1.853   .     S
Si30   O128    1.599   .     S
Si30   C129    1.886   .     S
Si30   C130    1.823   .     S
Si31   O131    1.616   .     S
Si31   O132    1.607   .     S
Si31   C133    1.857   .     S
Si31   O189    1.612   .     S
Si32   O134    1.579   .     S
Si32   O135    1.618   .     S
Si32   O136    1.608   .     S
Si32   O137    1.629   .     S
Si33   O138    1.632   .     S
Si33   O141    1.555   .     S
Si33   C139    1.830   1_545 S
Si33   O175    1.607   1_545 S
Si34   O141    1.572   .     S
Si34   C142    1.824   .     S
Si34   C140    1.895   1_554 S
Si34   O149    1.595   1_554 S
Si35   O143    1.627   .     S
Si35   C144    1.841   .     S
Si35   C145    1.880   .     S
Si35   C146    1.851   .     S
Si36   C147    1.939   .     S
Si36   C153    1.836   .     S
Si36   O191    1.554   1_545 S
Si36   O197    1.583   1_545 S
Si37   O148    1.593   .     S
Si37   O149    1.593   .     S
Si37   C150    1.804   .     S
Si37   C160    1.886   .     S
Si38   C151    1.872   .     S
Si38   C152    1.859   .     S
Si38   C154    1.903   .     S
Si38   O162    1.614   .     S
Si39   O155    1.624   .     S
Si39   C156    1.892   .     S
Si39   C157    1.832   .     S
Si39   O170    1.595   .     S
Si40   O158    1.579   .     S
Si40   O159    1.606   .     S
Si40   O168    1.630   .     S
Si40   O176    1.605   .     S
Si41   C161    1.916   .     S
Si41   O162    1.561   .     S
Si41   C163    1.930   .     S
Si41   O169    1.610   .     S
Si42   C164    1.899   .     S
Si42   C165    1.889   .     S
Si42   C166    1.726   .     S
Si42   O186    1.658   .     S
Si43   O167    1.660   .     S
Si43   O168    1.558   .     S
Si43   O169    1.552   .     S
Si43   O187    1.609   .     S
Si44   O170    1.558   .     S
Si44   C171    1.919   .     S
Si44   C172    1.849   .     S
Si44   O174    1.641   .     S
Si45   O174    1.605   .     S
Si45   O175    1.602   .     S
Si45   O173    1.587   1_554 S
Si45   O190    1.621   1_554 S
Si46   O176    1.580   .     S
Si46   C177    1.810   .     S
Si46   C178    1.825   .     S
Si46   O184    1.597   .     S
Si47   O179    1.556   .     S
Si47   C180    1.861   .     S
Si47   C181    1.876   .     S
Si47   C194    1.879   .     S
Si48   C182    1.880   .     S
Si48   C183    1.853   .     S
Si48   O184    1.583   .     S
Si48   C185    1.764   .     S
Si49   O186    1.584   .     S
Si49   O187    1.612   .     S
Si49   O188    1.606   .     S
Si49   O196    1.649   .     S
Si50   O189    1.639   .     S
Si50   O190    1.598   .     S
Si50   O191    1.594   .     S
Si50   O192    1.626   .     S
Si51   C193    1.777   .     S
Si51   C195    1.846   .     S
Si51   O196    1.576   .     S
Si51   O197    1.554   .     S
C52    H198    1.129   .     S
C52    H199    1.156   .     S
C52    H200    1.177   .     S
C53    H201    1.132   .     S
C53    H202    1.109   .     S
C53    H203    1.133   .     S
C53    Si2     1.920   1_556 S
C54    H204    1.101   .     S
C54    H205    1.131   .     S
C54    H206    1.161   .     S
C55    H207    1.109   .     S
C55    H208    1.115   .     S
C55    H209    1.130   .     S
C55    Si3     1.840   1_565 S
C56    H210    1.137   .     S
C56    H211    1.062   .     S
C56    H212    1.097   .     S
C56    Si3     1.909   1_565 S
C59    H213    1.058   .     S
C59    H214    1.108   .     S
C59    H215    1.030   .     S
C60    H216    1.129   .     S
C60    H217    1.106   .     S
C60    H218    1.090   .     S
C61    H219    1.121   .     S
C61    H220    1.127   .     S
C61    H221    1.084   .     S
C63    H222    1.136   .     S
C63    H223    1.113   .     S
C63    H224    1.115   .     S
C64    H225    1.084   .     S
C64    H226    1.142   .     S
C64    H227    1.068   .     S
C65    H228    1.077   .     S
C65    H229    1.069   .     S
C65    H230    1.087   .     S
C66    H231    1.082   .     S
C66    H232    1.136   .     S
C66    H233    1.146   .     S
C68    H234    1.086   .     S
C68    H235    1.075   .     S
C68    H236    1.130   .     S
C69    H237    1.132   .     S
C69    H238    1.049   .     S
C69    H239    1.099   .     S
C70    H240    1.083   .     S
C70    H241    1.081   .     S
C70    H242    1.063   .     S
C70    Si8     1.858   1_655 S
C71    H243    1.138   .     S
C71    H244    1.108   .     S
C71    H245    1.123   .     S
C75    H246    1.087   .     S
C75    H247    1.138   .     S
C75    H248    1.089   .     S
C76    H249    1.109   .     S
C76    H250    1.114   .     S
C76    H251    1.110   .     S
C77    H252    1.125   .     S
C77    H253    1.123   .     S
C77    H254    1.120   .     S
C79    H255    1.085   .     S
C79    H256    1.108   .     S
C79    H257    1.048   .     S
C80    H258    1.072   .     S
C80    H259    1.167   .     S
C80    H260    1.069   .     S
O82    Si12    1.638   1_556 S
C83    H261    1.125   .     S
C83    H262    1.087   .     S
C83    H263    1.071   .     S
C84    H264    1.093   .     S
C84    H265    1.096   .     S
C84    H266    1.085   .     S
C86    H267    1.067   .     S
C86    H268    1.075   .     S
C86    H269    1.105   .     S
C87    H270    1.097   .     S
C87    H271    1.101   .     S
C87    H272    1.103   .     S
C88    H273    1.079   .     S
C88    H274    1.099   .     S
C88    H275    1.119   .     S
C89    H276    1.097   .     S
C89    H277    1.065   .     S
C89    H278    1.124   .     S
C90    H279    1.072   .     S
C90    H280    1.145   .     S
C90    H281    1.136   .     S
C90    Si16    1.874   1_565 S
C91    H282    1.137   .     S
C91    H283    1.142   .     S
C91    H284    1.122   .     S
C92    H285    1.052   .     S
C92    H286    1.066   .     S
C92    H287    1.129   .     S
C93    H288    1.063   .     S
C93    H289    1.093   .     S
C93    H290    1.096   .     S
C95    H291    1.110   .     S
C95    H292    1.100   .     S
C95    H293    1.112   .     S
C96    H294    1.066   .     S
C96    H295    1.045   .     S
C96    H296    1.084   .     S
C97    H297    1.023   .     S
C97    H298    1.089   .     S
C97    H299    1.041   .     S
C97    Si19    1.863   1_565 S
C98    H300    1.109   .     S
C98    H301    1.119   .     S
C98    H302    1.111   .     S
C99    H303    1.090   .     S
C99    H304    1.141   .     S
C99    H305    1.137   .     S
C100   H306    1.119   .     S
C100   H307    1.119   .     S
C100   H308    1.139   .     S
O101   Si2     1.626   1_556 S
C102   H309    1.079   .     S
C102   H310    1.108   .     S
C102   H311    1.086   .     S
C104   H312    1.085   .     S
C104   H313    1.136   .     S
C104   H314    1.129   .     S
C105   H315    1.150   .     S
C105   H316    1.096   .     S
C105   H317    1.097   .     S
C107   H318    1.072   .     S
C107   H319    1.170   .     S
C107   H320    1.122   .     S
C108   H321    1.104   .     S
C108   H322    1.075   .     S
C108   H323    1.140   .     S
C110   H324    1.155   .     S
C110   H325    1.120   .     S
C110   H326    1.159   .     S
C111   H327    1.130   .     S
C111   H328    1.089   .     S
C111   H329    1.128   .     S
C112   H330    1.073   .     S
C112   H331    1.040   .     S
C112   H332    1.112   .     S
C113   H333    1.110   .     S
C113   H334    1.070   .     S
C113   H335    1.165   .     S
C115   H336    1.067   .     S
C115   H337    1.091   .     S
C115   H338    1.129   .     S
C119   H339    1.096   .     S
C119   H340    1.154   .     S
C119   H341    1.089   .     S
C120   H342    1.124   .     S
C120   H343    1.124   .     S
C120   H344    1.120   .     S
C122   H345    1.082   .     S
C122   H346    1.118   .     S
C122   H347    1.111   .     S
C123   H348    1.117   .     S
C123   H349    1.118   .     S
C123   H350    1.027   .     S
O124   Si16    1.564   1_565 S
C126   H351    1.082   .     S
C126   H352    1.119   .     S
C126   H353    1.101   .     S
C127   H354    1.048   .     S
C127   H355    1.104   .     S
C127   H356    1.127   .     S
C129   H357    1.089   .     S
C129   H358    1.089   .     S
C129   H359    1.048   .     S
C130   H360    1.148   .     S
C130   H361    1.093   .     S
C130   H362    1.121   .     S
C133   H363    1.165   .     S
C133   H364    1.120   .     S
C133   H365    1.082   .     S
O135   Si28    1.602   1_556 S
O136   Si19    1.589   1_565 S
O137   Si12    1.587   1_556 S
O138   Si1     1.657   1_655 S
C139   H366    1.124   .     S
C139   H367    1.095   .     S
C139   H368    1.086   .     S
C139   Si33    1.830   1_565 S
C140   H369    1.125   .     S
C140   H370    1.155   .     S
C140   H371    1.116   .     S
C140   Si34    1.895   1_556 S
C142   H372    1.080   .     S
C142   H373    1.134   .     S
C142   H374    1.048   .     S
O143   Si1     1.607   1_655 S
C144   H375    1.084   .     S
C144   H376    1.121   .     S
C144   H377    1.078   .     S
C145   H378    1.114   .     S
C145   H379    1.135   .     S
C145   H380    1.070   .     S
C146   H381    1.154   .     S
C146   H382    1.097   .     S
C146   H383    1.093   .     S
C147   H384    1.114   .     S
C147   H385    1.108   .     S
C147   H386    1.112   .     S
O149   Si34    1.595   1_556 S
C150   H387    1.094   .     S
C150   H388    1.058   .     S
C150   H389    1.148   .     S
C151   H390    1.091   .     S
C151   H391    1.108   .     S
C151   H392    1.108   .     S
C152   H393    1.140   .     S
C152   H394    1.129   .     S
C152   H395    1.112   .     S
C153   H396    1.108   .     S
C153   H397    1.075   .     S
C153   H398    1.134   .     S
C154   H399    1.114   .     S
C154   H400    1.119   .     S
C154   H401    1.110   .     S
C156   H402    1.142   .     S
C156   H403    1.101   .     S
C156   H404    1.116   .     S
C157   H405    1.138   .     S
C157   H406    1.068   .     S
C157   H407    1.119   .     S
C160   H408    1.066   .     S
C160   H409    1.119   .     S
C160   H410    1.110   .     S
C161   H411    1.115   .     S
C161   H412    1.106   .     S
C161   H413    1.133   .     S
C163   H414    1.115   .     S
C163   H415    1.126   .     S
C163   H416    1.113   .     S
C164   H417    1.137   .     S
C164   H418    1.091   .     S
C164   H419    1.095   .     S
C165   H420    1.127   .     S
C165   H421    1.149   .     S
C165   H422    1.100   .     S
C166   H423    1.114   .     S
C166   H424    1.092   .     S
C166   H425    1.075   .     S
O167   Si8     1.614   1_655 S
C171   H426    1.065   .     S
C171   H427    1.113   .     S
C171   H428    1.105   .     S
C172   H429    1.064   .     S
C172   H430    1.123   .     S
C172   H431    1.117   .     S
O173   Si14    1.659   1_655 S
O173   Si45    1.587   1_556 S
O175   Si33    1.607   1_565 S
C177   H432    1.123   .     S
C177   H433    1.068   .     S
C177   H434    1.126   .     S
C178   H435    1.130   .     S
C178   H436    1.073   .     S
C178   H437    1.181   .     S
C180   H438    1.134   .     S
C180   H439    1.089   .     S
C180   H440    1.143   .     S
C181   H441    1.047   .     S
C181   H442    1.107   .     S
C181   H443    1.115   .     S
C182   H444    1.200   .     S
C182   H445    1.102   .     S
C182   H446    1.123   .     S
C183   H447    1.098   .     S
C183   H448    1.126   .     S
C183   H449    1.149   .     S
C185   H450    1.124   .     S
C185   H451    1.112   .     S
C185   H452    1.105   .     S
O188   Si14    1.602   1_655 S
O190   Si45    1.621   1_556 S
O191   Si36    1.554   1_565 S
O192   Si28    1.587   1_556 S
C193   H453    1.100   .     S
C193   H454    1.163   .     S
C193   H455    1.115   .     S
C194   H456    1.070   .     S
C194   H457    1.115   .     S
C194   H458    1.079   .     S
C195   H459    1.093   .     S
C195   H460    1.140   .     S
C195   H461    1.116   .     S
O197   Si36    1.583   1_565 S
