data_333-15-11-10-15-30-3
_audit_creation_date              2025-03-07
_audit_creation_method            'Materials Studio'
_symmetry_space_group_name_H-M    'P1'
_symmetry_Int_Tables_number       1
_symmetry_cell_setting            triclinic
loop_
_symmetry_equiv_pos_as_xyz
  x,y,z
_cell_length_a                    16.7182
_cell_length_b                    16.0439
_cell_length_c                    18.4687
_cell_angle_alpha                 92.1832
_cell_angle_beta                  96.3343
_cell_angle_gamma                 120.3749
loop_
_atom_site_label
_atom_site_type_symbol
_atom_site_fract_x
_atom_site_fract_y
_atom_site_fract_z
_atom_site_U_iso_or_equiv
_atom_site_adp_type
_atom_site_occupancy
Si1    Si    0.11610  -0.04468   0.16677   0.00000  Uiso   1.00
Si2    Si    0.00266   0.13864   0.23734   0.00000  Uiso   1.00
Si3    Si    0.08800   0.09470   0.05873   0.00000  Uiso   1.00
Si4    Si    0.19791   0.09513   0.49396   0.00000  Uiso   1.00
Si5    Si    0.04537   0.25548   0.52561   0.00000  Uiso   1.00
Si6    Si    0.17094   0.16278   0.34154   0.00000  Uiso   1.00
Si7    Si    0.35787   0.08796   0.73673   0.00000  Uiso   1.00
Si8    Si   -0.06264   0.03245   0.92601   0.00000  Uiso   1.00
Si9    Si    0.08234   0.23190   0.69293   0.00000  Uiso   1.00
Si10   Si    0.10819   0.29171   0.12958   0.00000  Uiso   1.00
Si11   Si   -0.00935   0.47499   0.21352   0.00000  Uiso   1.00
Si12   Si    0.05094   0.39664   0.01249   0.00000  Uiso   1.00
Si13   Si    0.18813   0.35112   0.41166   0.00000  Uiso   1.00
Si14   Si    0.04936   0.56758   0.54215   0.00000  Uiso   1.00
Si15   Si    0.15253   0.49195   0.32629   0.00000  Uiso   1.00
Si16   Si    0.11475   0.61203   0.81906   0.00000  Uiso   1.00
Si17   Si    0.22500   0.57783   0.61964   0.00000  Uiso   1.00
Si18   Si    0.09541   0.59332   0.09206   0.00000  Uiso   1.00
Si19   Si   -0.01356   0.80172   0.25711   0.00000  Uiso   1.00
Si20   Si    0.12307   0.79689   0.05435   0.00000  Uiso   1.00
Si21   Si    0.18524   0.66202   0.43276   0.00000  Uiso   1.00
Si22   Si    0.11187   0.90372   0.56473   0.00000  Uiso   1.00
Si23   Si    0.15622   0.80266   0.33822   0.00000  Uiso   1.00
Si24   Si    0.26515   0.75025   0.73319   0.00000  Uiso   1.00
Si25   Si    0.28247   0.90158   0.63314   0.00000  Uiso   1.00
Si26   Si    0.30146   0.11176   0.26450   0.00000  Uiso   1.00
Si27   Si    0.50861  -0.02641   0.44823   0.00000  Uiso   1.00
Si28   Si    0.46189   0.11166   0.35703   0.00000  Uiso   1.00
Si29   Si    0.40143   0.23784   0.14717   0.00000  Uiso   1.00
Si30   Si    0.28519   0.48357   0.21523   0.00000  Uiso   1.00
Si31   Si    0.45491   0.51947   0.00278   0.00000  Uiso   1.00
Si32   Si    0.51636   0.31261   0.41961   0.00000  Uiso   1.00
Si33   Si    0.34868   0.53875   0.51642   0.00000  Uiso   1.00
Si34   Si    0.45193   0.64059   0.13418   0.00000  Uiso   1.00
Si35   Si    0.46798   0.78630   0.02426   0.00000  Uiso   1.00
Si36   Si    0.52921   0.67111   0.45762   0.00000  Uiso   1.00
Si37   Si    0.37393   0.82554   0.53371   0.00000  Uiso   1.00
Si38   Si    0.54304   0.83032   0.36218   0.00000  Uiso   1.00
Si39   Si    0.40419   0.83656   0.88064   0.00000  Uiso   1.00
Si40   Si    0.52208   0.82684   0.64554   0.00000  Uiso   1.00
Si41   Si    0.80811  -0.02801   0.14535   0.00000  Uiso   1.00
Si42   Si    0.55559   0.07355   0.23822   0.00000  Uiso   1.00
Si43   Si    0.86614   0.05351   0.51301   0.00000  Uiso   1.00
Si44   Si    0.62601   0.13975   0.57171   0.00000  Uiso   1.00
Si45   Si    0.88732   0.45485   0.42433   0.00000  Uiso   1.00
Si46   Si    0.80542   0.45974   0.15354   0.00000  Uiso   1.00
Si47   Si    0.57542   0.47372   0.91261   0.00000  Uiso   1.00
Si48   Si    0.93923   0.60912   0.63815   0.00000  Uiso   1.00
Si49   Si    0.64740   0.80837   0.23652   0.00000  Uiso   1.00
Si50   Si    0.78501   0.80499   0.03967   0.00000  Uiso   1.00
Si51   Si    0.81098   0.78845   0.31945   0.00000  Uiso   1.00
C52    C     0.94851   0.17531   0.30554   0.00000  Uiso   1.00
O53    O     0.09389   0.02862   0.12358   0.00000  Uiso   1.00
C54    C     0.16767   0.09523   0.99448   0.00000  Uiso   1.00
C55    C     0.19435   0.16910   0.56482   0.00000  Uiso   1.00
C56    C     0.98258   0.32226   0.51557   0.00000  Uiso   1.00
O57    O     0.07521   0.11814   0.28321   0.00000  Uiso   1.00
O58    O     0.15952   0.10774   0.41185   0.00000  Uiso   1.00
C59    C     0.46996   0.11509   0.78424   0.00000  Uiso   1.00
C60    C     0.27402   1.04077   0.80479   0.00000  Uiso   1.00
O61    O    -0.01216   0.04128   1.00841   0.00000  Uiso   1.00
C62    C     0.01440   0.14463   0.88572   0.00000  Uiso   1.00
C63    C     0.82014   0.02137   0.91788   0.00000  Uiso   1.00
C64    C     0.93684  -0.06811   0.86879   0.00000  Uiso   1.00
O65    O     0.08636   0.26056   0.61094   0.00000  Uiso   1.00
C66    C     0.38379   0.21156   0.71976   0.00000  Uiso   1.00
C67    C     0.04333   0.09859   0.70067   0.00000  Uiso   1.00
C68    C     0.00007   0.25950   0.73403   0.00000  Uiso   1.00
C69    C     0.19462   0.30848   0.75515   0.00000  Uiso   1.00
O70    O     0.05010   0.23351   0.19411   0.00000  Uiso   1.00
O71    O     0.11997   0.20855   0.08255   0.00000  Uiso   1.00
C72    C     0.94032   0.35282   0.17537   0.00000  Uiso   1.00
O73    O     0.05802   0.33925   0.07982   0.00000  Uiso   1.00
C74    C     0.13625   0.40196   0.95076   0.00000  Uiso   1.00
O75    O     0.12873   0.29640   0.47680   0.00000  Uiso   1.00
O76    O     0.20100   0.27255   0.36586   0.00000  Uiso   1.00
O77    O     0.06020   0.49051   0.28984   0.00000  Uiso   1.00
O78    O     0.13808   0.39516   0.36122   0.00000  Uiso   1.00
C79    C     0.19823   0.62820   0.89914   0.00000  Uiso   1.00
C80    C    -0.06814   0.32740   0.95433   0.00000  Uiso   1.00
C81    C     1.01961   0.62118   0.85769   0.00000  Uiso   1.00
C82    C     1.06604   0.49026   0.77646   0.00000  Uiso   1.00
O83    O     0.11772   0.53581   0.58582   0.00000  Uiso   1.00
C84    C     0.23628   0.50240   0.68610   0.00000  Uiso   1.00
O85    O     0.05294   0.54910   0.16431   0.00000  Uiso   1.00
O86    O     0.06506   0.50139   0.03271   0.00000  Uiso   1.00
C87    C     0.22249   0.64926   0.11601   0.00000  Uiso   1.00
O88    O     0.04211   0.90289   0.22125   0.00000  Uiso   1.00
C89    C     0.96757   0.70135   0.19271   0.00000  Uiso   1.00
O90    O     0.07834   0.68200   0.06784   0.00000  Uiso   1.00
O91    O     0.10284   0.86566   0.11125   0.00000  Uiso   1.00
C92    C     0.08837   0.81629   0.96166   0.00000  Uiso   1.00
O93    O     0.10358   0.62662   0.48080   0.00000  Uiso   1.00
O94    O     0.19400   0.57672   0.39241   0.00000  Uiso   1.00
O95    O     0.13238   0.98949   0.51461   0.00000  Uiso   1.00
C96    C     1.08711   0.93264   0.65438   0.00000  Uiso   1.00
C97    C     1.00555   0.79862   0.51244   0.00000  Uiso   1.00
O98    O     0.05256   0.79487   0.32183   0.00000  Uiso   1.00
O99    O     0.15706   0.71119   0.37101   0.00000  Uiso   1.00
C100   C     0.23839   0.90806   0.40173   0.00000  Uiso   1.00
C101   C     0.31684   1.11190   0.49514   0.00000  Uiso   1.00
C102   C     0.22177   0.81279   0.25768   0.00000  Uiso   1.00
O103   O     0.17002   0.69243   0.76933   0.00000  Uiso   1.00
O104   O     0.27126   0.68214   0.66999   0.00000  Uiso   1.00
O105   O     0.19158   0.87774   0.57471   0.00000  Uiso   1.00
O106   O     0.26568   0.84059   0.70078   0.00000  Uiso   1.00
O107   O     0.32822   1.01289   0.66473   0.00000  Uiso   1.00
O108   O     0.22163   0.01886   0.20814   0.00000  Uiso   1.00
O109   O     0.25043   0.16179   0.30597   0.00000  Uiso   1.00
O110   O     0.35906   0.08454   0.32274   0.00000  Uiso   1.00
O111   O     0.46374   0.03170   0.40542   0.00000  Uiso   1.00
O112   O     0.37623   0.18570   0.21839   0.00000  Uiso   1.00
C113   C     0.38964   0.16355   0.06482   0.00000  Uiso   1.00
C114   C     0.51760   0.35095   0.15313   0.00000  Uiso   1.00
O115   O     0.21226   0.38972   0.15727   0.00000  Uiso   1.00
C116   C     0.34757   0.44617   0.28223   0.00000  Uiso   1.00
O117   O     0.22636   0.51747   0.26549   0.00000  Uiso   1.00
C118   C     0.32050   0.28569   0.13677   0.00000  Uiso   1.00
C119   C     0.35875   0.39573  -0.00757   0.00000  Uiso   1.00
C120   C     0.41685   0.57968   0.93517   0.00000  Uiso   1.00
C121   C     0.58900   0.38317   0.50925   0.00000  Uiso   1.00
O122   O     0.49459   0.20400   0.41087   0.00000  Uiso   1.00
C123   C     0.41223   0.32888   0.42045   0.00000  Uiso   1.00
C124   C     0.57018   0.37048   0.33862   0.00000  Uiso   1.00
O125   O     0.28787   0.44993   0.45038   0.00000  Uiso   1.00
C126   C     0.40461   0.48839   0.58238   0.00000  Uiso   1.00
O127   O     0.28558   0.57658   0.55513   0.00000  Uiso   1.00
O128   O     0.36031   0.57717   0.17701   0.00000  Uiso   1.00
O129   O     0.47252   0.57174   0.08496   0.00000  Uiso   1.00
O130   O     0.42228   0.69991   0.07839   0.00000  Uiso   1.00
C131   C     0.50130   0.90259   0.07713   0.00000  Uiso   1.00
C132   C     0.57073   0.79536   0.99854   0.00000  Uiso   1.00
O133   O     0.42716   0.62317   0.47659   0.00000  Uiso   1.00
C134   C     0.53923   0.60290   0.37840   0.00000  Uiso   1.00
C135   C     0.61384   0.67979   0.53020   0.00000  Uiso   1.00
O136   O     0.27979   0.72993   0.49176   0.00000  Uiso   1.00
O137   O     0.42654   0.88420   0.47356   0.00000  Uiso   1.00
O138   O     0.34923   0.89128   0.58285   0.00000  Uiso   1.00
C139   C     0.41902   0.74610   0.31346   0.00000  Uiso   1.00
O140   O     0.55793   0.77624   0.43070   0.00000  Uiso   1.00
O141   O     0.55033   0.93142   0.39073   0.00000  Uiso   1.00
O142   O     0.35326   0.78304   0.80079   0.00000  Uiso   1.00
O143   O     0.39924   0.77264   0.94914   0.00000  Uiso   1.00
C144   C     0.53260   0.92178   0.87386   0.00000  Uiso   1.00
C145   C     0.35687   0.91383   0.91017   0.00000  Uiso   1.00
C146   C     0.24952   0.86072   1.06312   0.00000  Uiso   1.00
O147   O     0.44139   0.79152   0.57965   0.00000  Uiso   1.00
C148   C     0.50540   0.72965   0.70714   0.00000  Uiso   1.00
C149   C     0.52621   0.92540   0.69706   0.00000  Uiso   1.00
C150   C     0.64080   0.88547   0.61205   0.00000  Uiso   1.00
C151   C     0.78724   0.07124   0.11309   0.00000  Uiso   1.00
O152   O     0.91660   0.03668   0.18858   0.00000  Uiso   1.00
C153   C     0.47195  -0.05527   0.23948   0.00000  Uiso   1.00
C154   C     0.68302   0.10993   0.27131   0.00000  Uiso   1.00
C155   C     0.54601   0.10532   0.14690   0.00000  Uiso   1.00
O156   O     0.52287   0.12740   0.29143   0.00000  Uiso   1.00
C157   C     0.76633   0.02968   0.43994   0.00000  Uiso   1.00
O158   O     0.96620   0.14525   0.49529   0.00000  Uiso   1.00
C159   C     0.83755   1.09139   0.59338   0.00000  Uiso   1.00
O160   O     0.58300   0.03763   0.51919   0.00000  Uiso   1.00
C161   C     0.70436   0.23288   0.51630   0.00000  Uiso   1.00
C162   C     0.70011   0.16533   0.66422   0.00000  Uiso   1.00
C163   C     0.52500   0.15605   0.59504   0.00000  Uiso   1.00
C164   C     0.77010   0.42551   0.43406   0.00000  Uiso   1.00
C165   C     0.87306   0.35255   0.36208   0.00000  Uiso   1.00
O166   O     0.95354   0.48159   0.49957   0.00000  Uiso   1.00
O167   O     0.89749   0.47944   0.20984   0.00000  Uiso   1.00
C168   C     0.83392   0.49007   0.05561   0.00000  Uiso   1.00
C169   C     0.92204   0.56651   0.37734   0.00000  Uiso   1.00
C170   C     0.71612   0.32966   0.14325   0.00000  Uiso   1.00
C171   C     0.74698   0.51981   0.19507   0.00000  Uiso   1.00
C172   C     0.49830   0.46567   0.81838   0.00000  Uiso   1.00
C173   C     0.54525   0.34997   0.92644   0.00000  Uiso   1.00
C174   C     0.70305   0.54591   0.90312   0.00000  Uiso   1.00
O175   O     0.54541   0.52070   0.97675   0.00000  Uiso   1.00
O176   O     1.02687   0.63140   0.59663   0.00000  Uiso   1.00
C177   C     0.83963   0.60725   0.57698   0.00000  Uiso   1.00
C178   C     0.88480   0.48452   0.67035   0.00000  Uiso   1.00
C179   C     0.96868   0.70603   0.71086   0.00000  Uiso   1.00
O180   O     0.55255   0.71907   0.18378   0.00000  Uiso   1.00
O181   O     0.72063   0.90215   0.19362   0.00000  Uiso   1.00
O182   O     0.60925   0.84683   0.30073   0.00000  Uiso   1.00
C183   C     0.89532   0.80326   1.04002   0.00000  Uiso   1.00
C184   C     0.71649   0.70901   0.09975   0.00000  Uiso   1.00
O185   O     0.80259   0.90806   0.07621   0.00000  Uiso   1.00
C186   C     0.72330   0.77197   0.94182   0.00000  Uiso   1.00
O187   O     0.88686   0.78450   0.27529   0.00000  Uiso   1.00
O188   O     0.71018   0.76415   0.27096   0.00000  Uiso   1.00
C189   C     0.78618   0.69200   0.38236   0.00000  Uiso   1.00
C190   C     0.87508   0.92090   0.35685   0.00000  Uiso   1.00
C191   C     0.86891   0.93869   0.53122   0.00000  Uiso   1.00
H192   H     0.98251   0.25346   0.32216   0.00000  Uiso   1.00
H193   H     0.94900   0.14674   0.35868   0.00000  Uiso   1.00
H194   H     0.87161   0.15158   0.28574   0.00000  Uiso   1.00
H195   H     0.12351   0.04479   0.94697   0.00000  Uiso   1.00
H196   H     0.21052   0.07253   1.02315   0.00000  Uiso   1.00
H197   H     0.20856   0.16977   0.97952   0.00000  Uiso   1.00
H198   H     0.23378   0.24871   0.55442   0.00000  Uiso   1.00
H199   H     0.21933   0.14820   0.61422   0.00000  Uiso   1.00
H200   H     0.11527   0.13663   0.56693   0.00000  Uiso   1.00
H201   H     0.91680   0.28155   0.47603   0.00000  Uiso   1.00
H202   H     1.03353   0.38518   0.48640   0.00000  Uiso   1.00
H203   H     0.96803   0.34340   0.56446   0.00000  Uiso   1.00
H204   H     0.52996   0.17048   0.75775   0.00000  Uiso   1.00
H205   H     0.45752   0.03845   0.78136   0.00000  Uiso   1.00
H206   H     0.48410   0.14386   0.84529   0.00000  Uiso   1.00
H207   H     0.23287   0.96023   0.80432   0.00000  Uiso   1.00
H208   H     0.21896   1.06367   0.79149   0.00000  Uiso   1.00
H209   H     0.31217   1.07755   0.86128   0.00000  Uiso   1.00
H210   H    -0.00226   0.14053   0.82501   0.00000  Uiso   1.00
H211   H     0.08194   0.15089   0.89435   0.00000  Uiso   1.00
H212   H     0.01792   0.21196   0.90814   0.00000  Uiso   1.00
H213   H     0.82797   0.09431   0.91035   0.00000  Uiso   1.00
H214   H     0.79040   0.00252   0.96730   0.00000  Uiso   1.00
H215   H     0.76456  -0.03017   0.87277   0.00000  Uiso   1.00
H216   H     1.00238  -0.03799   0.84572   0.00000  Uiso   1.00
H217   H     0.88166  -0.08906   0.82030   0.00000  Uiso   1.00
H218   H     0.91979  -0.12919   0.89164   0.00000  Uiso   1.00
H219   H     0.37567   0.21405   0.66294   0.00000  Uiso   1.00
H220   H     0.45142   0.25789   0.75205   0.00000  Uiso   1.00
H221   H     0.33451   0.22232   0.74188   0.00000  Uiso   1.00
H222   H     0.08679   0.08694   0.73973   0.00000  Uiso   1.00
H223   H     0.03694   0.06175   0.64726   0.00000  Uiso   1.00
H224   H    -0.02455   0.05452   0.71581   0.00000  Uiso   1.00
H225   H    -0.07005   0.19164   0.73458   0.00000  Uiso   1.00
H226   H    -0.00797   0.31340   0.70251   0.00000  Uiso   1.00
H227   H     0.02871   0.29697   0.78985   0.00000  Uiso   1.00
H228   H     0.25714   0.34263   0.72398   0.00000  Uiso   1.00
H229   H     0.20003   0.25650   0.78621   0.00000  Uiso   1.00
H230   H     0.20206   0.37373   0.78997   0.00000  Uiso   1.00
H231   H     0.98764   0.32852   0.18888   0.00000  Uiso   1.00
H232   H     0.91014   0.34880   0.11609   0.00000  Uiso   1.00
H233   H     0.88002   0.31004   0.20796   0.00000  Uiso   1.00
H234   H     0.09737   0.39202   0.89350   0.00000  Uiso   1.00
H235   H     0.15122   0.34385   0.95954   0.00000  Uiso   1.00
H236   H     0.20567   0.46907   0.96134   0.00000  Uiso   1.00
H237   H     0.25719   0.62688   0.88028   0.00000  Uiso   1.00
H238   H     0.15923   0.57048   0.93754   0.00000  Uiso   1.00
H239   H     0.21903   0.69454   0.93146   0.00000  Uiso   1.00
H240   H    -0.07725   0.36849   0.90843   0.00000  Uiso   1.00
H241   H    -0.11431   0.32405   0.99187   0.00000  Uiso   1.00
H242   H    -0.09166   0.24902   0.94200   0.00000  Uiso   1.00
H243   H     1.03462   0.63591   0.91600   0.00000  Uiso   1.00
H244   H     0.95181   0.55529   0.84785   0.00000  Uiso   1.00
H245   H     1.01051   0.67949   0.84172   0.00000  Uiso   1.00
H246   H     1.11708   0.47092   0.79618   0.00000  Uiso   1.00
H247   H     1.06054   0.50118   0.71880   0.00000  Uiso   1.00
H248   H     1.00434   0.43182   0.80053   0.00000  Uiso   1.00
H249   H     0.25211   0.53532   0.74000   0.00000  Uiso   1.00
H250   H     0.28082   0.47342   0.66405   0.00000  Uiso   1.00
H251   H     0.16443   0.43670   0.68448   0.00000  Uiso   1.00
H252   H     0.26233   0.71368   0.15916   0.00000  Uiso   1.00
H253   H     0.25825   0.66466   0.06501   0.00000  Uiso   1.00
H254   H     0.22737   0.59275   0.13840   0.00000  Uiso   1.00
H255   H     0.91580   0.68968   0.14148   0.00000  Uiso   1.00
H256   H     0.93647   0.64394   0.22996   0.00000  Uiso   1.00
H257   H     1.03446   0.71038   0.18168   0.00000  Uiso   1.00
H258   H     0.13253   0.81051   0.92378   0.00000  Uiso   1.00
H259   H     0.11142   0.89401   0.96310   0.00000  Uiso   1.00
H260   H     0.00815   0.77230   0.94737   0.00000  Uiso   1.00
H261   H     1.10254   0.88759   0.68977   0.00000  Uiso   1.00
H262   H     1.01537   0.91986   0.66151   0.00000  Uiso   1.00
H263   H     1.13717   1.00603   0.67395   0.00000  Uiso   1.00
H264   H     1.01379   0.73964   0.52302   0.00000  Uiso   1.00
H265   H     1.01120   0.81003   0.45264   0.00000  Uiso   1.00
H266   H     0.94248   0.80194   0.52802   0.00000  Uiso   1.00
H267   H     0.30122   0.91547   0.38866   0.00000  Uiso   1.00
H268   H     0.22225   0.89515   0.45671   0.00000  Uiso   1.00
H269   H     0.22794   0.96982   0.38531   0.00000  Uiso   1.00
H270   H     0.33050   1.11978   0.44053   0.00000  Uiso   1.00
H271   H     0.31491   1.04954   0.51968   0.00000  Uiso   1.00
H272   H     0.36638   1.17889   0.53493   0.00000  Uiso   1.00
H273   H     0.23685   0.87940   0.23435   0.00000  Uiso   1.00
H274   H     0.17279   0.74854   0.21846   0.00000  Uiso   1.00
H275   H     0.28910   0.81552   0.27709   0.00000  Uiso   1.00
H276   H     0.36385   0.18739   0.01670   0.00000  Uiso   1.00
H277   H     0.35230   0.08500   0.07316   0.00000  Uiso   1.00
H278   H     0.45993   0.18099   0.05311   0.00000  Uiso   1.00
H279   H     0.57055   0.34206   0.18677   0.00000  Uiso   1.00
H280   H     0.52210   0.41389   0.18387   0.00000  Uiso   1.00
H281   H     0.54132   0.37280   0.10188   0.00000  Uiso   1.00
H282   H     0.41494   0.46334   0.26601   0.00000  Uiso   1.00
H283   H     0.30179   0.36987   0.28092   0.00000  Uiso   1.00
H284   H     0.36269   0.48301   0.33740   0.00000  Uiso   1.00
H285   H     0.28954   0.27245   0.18925   0.00000  Uiso   1.00
H286   H     0.27314   0.25889   0.08340   0.00000  Uiso   1.00
H287   H     0.36043   0.36373   0.13805   0.00000  Uiso   1.00
H288   H     0.38726   0.34565   0.00668   0.00000  Uiso   1.00
H289   H     0.33521   0.37565  -0.06551   0.00000  Uiso   1.00
H290   H     0.30104   0.38989   0.01863   0.00000  Uiso   1.00
H291   H     0.38031   0.52554   0.88718   0.00000  Uiso   1.00
H292   H     0.47342   0.64149   0.91225   0.00000  Uiso   1.00
H293   H     0.36542   0.59230   0.95406   0.00000  Uiso   1.00
H294   H     0.63190   0.46399   0.50864   0.00000  Uiso   1.00
H295   H     0.64045   0.35757   0.53109   0.00000  Uiso   1.00
H296   H     0.53727   0.36652   0.54632   0.00000  Uiso   1.00
H297   H     0.36725   0.28622   0.46163   0.00000  Uiso   1.00
H298   H     0.37369   0.31041   0.36391   0.00000  Uiso   1.00
H299   H     0.43710   0.40155   0.43817   0.00000  Uiso   1.00
H300   H     0.51165   0.34586   0.29315   0.00000  Uiso   1.00
H301   H     0.61205   0.34021   0.32276   0.00000  Uiso   1.00
H302   H     0.61918   0.44999   0.34754   0.00000  Uiso   1.00
H303   H     0.46720   0.49982   0.56109   0.00000  Uiso   1.00
H304   H     0.36129   0.41330   0.58424   0.00000  Uiso   1.00
H305   H     0.43088   0.53146   0.64029   0.00000  Uiso   1.00
H306   H     0.52447   0.95896   0.03974   0.00000  Uiso   1.00
H307   H     0.56217   0.92056   0.12101   0.00000  Uiso   1.00
H308   H     0.44688   0.89985   0.10081   0.00000  Uiso   1.00
H309   H     0.56895   0.79378   0.93677   0.00000  Uiso   1.00
H310   H     0.56878   0.72886   1.01240   0.00000  Uiso   1.00
H311   H     0.63109   0.85888   1.02908   0.00000  Uiso   1.00
H312   H     0.50419   0.60994   0.32694   0.00000  Uiso   1.00
H313   H     0.52103   0.52817   0.38654   0.00000  Uiso   1.00
H314   H     0.61484   0.64197   0.37064   0.00000  Uiso   1.00
H315   H     0.67978   0.75040   0.53388   0.00000  Uiso   1.00
H316   H     0.62867   0.62211   0.51927   0.00000  Uiso   1.00
H317   H     0.58193   0.66764   0.58057   0.00000  Uiso   1.00
H318   H     0.40649   0.67320   0.31946   0.00000  Uiso   1.00
H319   H     0.41143   0.75179   0.25496   0.00000  Uiso   1.00
H320   H     0.37394   0.75966   0.34151   0.00000  Uiso   1.00
H321   H     0.53537   0.98076   0.84119   0.00000  Uiso   1.00
H322   H     0.55689   0.88347   0.84068   0.00000  Uiso   1.00
H323   H     0.56993   0.94506   0.92833   0.00000  Uiso   1.00
H324   H     0.38564   0.94273   0.96894   0.00000  Uiso   1.00
H325   H     0.27878   0.86889   0.89673   0.00000  Uiso   1.00
H326   H     0.39125   0.97862   0.88254   0.00000  Uiso   1.00
H327   H     0.27928   0.81956   1.04290   0.00000  Uiso   1.00
H328   H     0.28463   0.89616   1.12048   0.00000  Uiso   1.00
H329   H     0.26811   0.92065   1.03004   0.00000  Uiso   1.00
H330   H     0.51176   0.76004   0.76018   0.00000  Uiso   1.00
H331   H     0.55929   0.70676   0.70770   0.00000  Uiso   1.00
H332   H     0.43266   0.67128   0.69031   0.00000  Uiso   1.00
H333   H     0.52505   0.97661   0.65864   0.00000  Uiso   1.00
H334   H     0.59086   0.97551   0.73551   0.00000  Uiso   1.00
H335   H     0.45857   0.90038   0.72205   0.00000  Uiso   1.00
H336   H     0.63909   0.91329   0.55745   0.00000  Uiso   1.00
H337   H     0.66727   0.83171   0.61341   0.00000  Uiso   1.00
H338   H     0.69034   0.95682   0.64589   0.00000  Uiso   1.00
H339   H     0.78971   0.12138   0.15667   0.00000  Uiso   1.00
H340   H     0.72425   0.03495   0.07527   0.00000  Uiso   1.00
H341   H     0.84176   0.11589   0.07672   0.00000  Uiso   1.00
H342   H     0.50096  -0.10170   0.22244   0.00000  Uiso   1.00
H343   H     0.40758  -0.07549   0.19627   0.00000  Uiso   1.00
H344   H     0.44623  -0.06340   0.29067   0.00000  Uiso   1.00
H345   H     0.69879   0.05772   0.24473   0.00000  Uiso   1.00
H346   H     0.70558   0.11600   0.33060   0.00000  Uiso   1.00
H347   H     0.72889   0.18068   0.25151   0.00000  Uiso   1.00
H348   H     0.54889   0.17454   0.14712   0.00000  Uiso   1.00
H349   H     0.46973   0.04976   0.11887   0.00000  Uiso   1.00
H350   H     0.59807   0.10115   0.11724   0.00000  Uiso   1.00
H351   H     0.71107  -0.04815   0.43878   0.00000  Uiso   1.00
H352   H     0.79451   0.04995   0.38606   0.00000  Uiso   1.00
H353   H     0.73389   0.07167   0.45313   0.00000  Uiso   1.00
H354   H     0.87587   1.17065   0.60180   0.00000  Uiso   1.00
H355   H     0.85678   1.06268   0.64481   0.00000  Uiso   1.00
H356   H     0.76372   1.07149   0.58069   0.00000  Uiso   1.00
H357   H     0.65534   0.21843   0.46503   0.00000  Uiso   1.00
H358   H     0.75443   0.20824   0.50568   0.00000  Uiso   1.00
H359   H     0.73787   0.30497   0.54571   0.00000  Uiso   1.00
H360   H     0.77126   0.21697   0.65887   0.00000  Uiso   1.00
H361   H     0.69177   0.09649   0.67191   0.00000  Uiso   1.00
H362   H     0.67314   0.18824   0.70862   0.00000  Uiso   1.00
H363   H     0.46989   0.08814   0.61039   0.00000  Uiso   1.00
H364   H     0.49349   0.16319   0.54265   0.00000  Uiso   1.00
H365   H     0.55434   0.22547   0.63296   0.00000  Uiso   1.00
H366   H     0.76517   0.43334   0.49189   0.00000  Uiso   1.00
H367   H     0.73145   0.35259   0.40771   0.00000  Uiso   1.00
H368   H     0.74837   0.46812   0.39883   0.00000  Uiso   1.00
H369   H     0.84560   0.34980   0.30159   0.00000  Uiso   1.00
H370   H     0.81976   0.27925   0.37842   0.00000  Uiso   1.00
H371   H     0.94397   0.36461   0.36860   0.00000  Uiso   1.00
H372   H     0.88919   0.56539   0.05685   0.00000  Uiso   1.00
H373   H     0.76958   0.46140   0.01645   0.00000  Uiso   1.00
H374   H     0.85965   0.44481   0.03667   0.00000  Uiso   1.00
H375   H     0.85860   0.54461   0.33370   0.00000  Uiso   1.00
H376   H     0.98381   0.57990   0.34777   0.00000  Uiso   1.00
H377   H     0.93483   0.62917   0.41709   0.00000  Uiso   1.00
H378   H     0.73970   0.28978   0.12069   0.00000  Uiso   1.00
H379   H     0.66150   0.32915   0.10151   0.00000  Uiso   1.00
H380   H     0.69421   0.30765   0.19468   0.00000  Uiso   1.00
H381   H     0.69147   0.50707   0.15497   0.00000  Uiso   1.00
H382   H     0.79359   0.60202   0.21325   0.00000  Uiso   1.00
H383   H     0.71335   0.48158   0.24249   0.00000  Uiso   1.00
H384   H     0.52235   0.44595   0.77098   0.00000  Uiso   1.00
H385   H     0.49743   0.53331   0.81010   0.00000  Uiso   1.00
H386   H     0.42442   0.40717   0.81715   0.00000  Uiso   1.00
H387   H     0.56211   0.32254   0.87684   0.00000  Uiso   1.00
H388   H     0.46921   0.30360   0.92405   0.00000  Uiso   1.00
H389   H     0.58325   0.34885   0.97670   0.00000  Uiso   1.00
H390   H     0.72504   0.49216   0.89703   0.00000  Uiso   1.00
H391   H     0.74331   0.59471   0.95288   0.00000  Uiso   1.00
H392   H     0.70934   0.58353   0.85063   0.00000  Uiso   1.00
H393   H     0.82429   0.66231   0.59900   0.00000  Uiso   1.00
H394   H     0.77691   0.53654   0.57396   0.00000  Uiso   1.00
H395   H     0.86364   0.62172   0.51996   0.00000  Uiso   1.00
H396   H     0.80971   0.45862   0.66562   0.00000  Uiso   1.00
H397   H     0.91931   0.48719   0.72346   0.00000  Uiso   1.00
H398   H     0.89077   0.43220   0.63345   0.00000  Uiso   1.00
H399   H     0.95845   0.76661   0.68827   0.00000  Uiso   1.00
H400   H     1.04367   0.74411   0.73997   0.00000  Uiso   1.00
H401   H     0.91336   0.67287   0.74863   0.00000  Uiso   1.00
H402   H     0.95370   0.86490   1.01478   0.00000  Uiso   1.00
H403   H     0.87667   0.73135   1.01219   0.00000  Uiso   1.00
H404   H     0.92324   0.80666   1.09657   0.00000  Uiso   1.00
H405   H     0.69042   0.63383   0.06894   0.00000  Uiso   1.00
H406   H     0.65699   0.71386   0.11289   0.00000  Uiso   1.00
H407   H     0.75959   0.72059   0.15448   0.00000  Uiso   1.00
H408   H     0.76547   0.75364   0.90672   0.00000  Uiso   1.00
H409   H     0.72166   0.82504   0.90818   0.00000  Uiso   1.00
H410   H     0.65306   0.70019   0.93289   0.00000  Uiso   1.00
H411   H     0.72838   0.62073   0.35630   0.00000  Uiso   1.00
H412   H     0.77184   0.70864   0.43829   0.00000  Uiso   1.00
H413   H     0.84954   0.68726   0.39156   0.00000  Uiso   1.00
H414   H     0.88890   0.96204   0.30732   0.00000  Uiso   1.00
H415   H     0.94151   0.94575   0.38604   0.00000  Uiso   1.00
H416   H     0.83145   0.92898   0.39221   0.00000  Uiso   1.00
H417   H     0.93823   0.95682   0.52625   0.00000  Uiso   1.00
H418   H     0.81401   0.87055   0.49225   0.00000  Uiso   1.00
H419   H     0.85957   0.91952   0.58778   0.00000  Uiso   1.00
loop_
_geom_bond_atom_site_label_1
_geom_bond_atom_site_label_2
_geom_bond_distance
_geom_bond_site_symmetry_2
_ccdc_geom_bond_type
Si1    O53     1.614   .     S
Si1    O108    1.600   .     S
Si1    O88     1.593   1_545 S
Si1    O91     1.639   1_545 S
Si2    O57     1.579   .     S
Si2    O70     1.611   .     S
Si2    C52     1.867   1_455 S
Si2    O152    1.667   1_455 S
Si3    O53     1.657   .     S
Si3    O71     1.648   .     S
Si3    C54     1.876   1_554 S
Si3    O61     1.596   1_554 S
Si4    C55     1.759   .     S
Si4    O58     1.641   .     S
Si4    O95     1.575   1_545 S
Si4    C101    1.864   1_545 S
Si5    O65     1.629   .     S
Si5    O75     1.607   .     S
Si5    C56     1.842   1_455 S
Si5    O158    1.608   1_455 S
Si6    O57     1.624   .     S
Si6    O58     1.573   .     S
Si6    O76     1.597   .     S
Si6    O109    1.553   .     S
Si7    C59     1.804   .     S
Si7    C66     1.851   .     S
Si7    C60     1.872   1_545 S
Si7    O107    1.610   1_545 S
Si8    O61     1.621   .     S
Si8    C62     1.850   .     S
Si8    C63     1.864   1_455 S
Si8    C64     1.890   1_455 S
Si9    O65     1.598   .     S
Si9    C67     1.911   .     S
Si9    C68     1.867   .     S
Si9    C69     1.854   .     S
Si10   O70     1.630   .     S
Si10   O71     1.670   .     S
Si10   O73     1.631   .     S
Si10   O115    1.654   .     S
Si11   O77     1.649   .     S
Si11   O85     1.537   .     S
Si11   C72     1.773   1_455 S
Si11   O167    1.589   1_455 S
Si12   O73     1.604   .     S
Si12   O86     1.597   .     S
Si12   C74     1.893   1_554 S
Si12   C80     1.885   1_554 S
Si13   O75     1.633   .     S
Si13   O76     1.607   .     S
Si13   O78     1.595   .     S
Si13   O125    1.668   .     S
Si14   O83     1.623   .     S
Si14   O93     1.563   .     S
Si14   O166    1.579   1_455 S
Si14   O176    1.611   1_455 S
Si15   O77     1.603   .     S
Si15   O78     1.618   .     S
Si15   O94     1.598   .     S
Si15   O117    1.668   .     S
Si16   C79     1.831   .     S
Si16   O103    1.560   .     S
Si16   C81     1.881   1_455 S
Si16   C82     1.798   1_455 S
Si17   O83     1.600   .     S
Si17   C84     1.816   .     S
Si17   O104    1.636   .     S
Si17   O127    1.652   .     S
Si18   O85     1.600   .     S
Si18   O86     1.622   .     S
Si18   C87     1.830   .     S
Si18   O90     1.654   .     S
Si19   O88     1.622   .     S
Si19   O98     1.582   .     S
Si19   C89     1.834   1_455 S
Si19   O187    1.620   1_455 S
Si20   O90     1.643   .     S
Si20   O91     1.674   .     S
Si20   C92     1.835   1_554 S
Si20   C146    1.807   1_554 S
Si21   O93     1.580   .     S
Si21   O94     1.612   .     S
Si21   O99     1.572   .     S
Si21   O136    1.631   .     S
Si22   O95     1.599   .     S
Si22   O105    1.580   .     S
Si22   C96     1.848   1_455 S
Si22   C97     1.844   1_455 S
Si23   O98     1.665   .     S
Si23   O99     1.615   .     S
Si23   C100    1.807   .     S
Si23   C102    1.907   .     S
Si24   O103    1.620   .     S
Si24   O104    1.615   .     S
Si24   O106    1.585   .     S
Si24   O142    1.663   .     S
Si25   O105    1.624   .     S
Si25   O106    1.578   .     S
Si25   O107    1.599   .     S
Si25   O138    1.593   .     S
Si26   O108    1.628   .     S
Si26   O109    1.658   .     S
Si26   O110    1.583   .     S
Si26   O112    1.584   .     S
Si27   O111    1.640   .     S
Si27   O160    1.602   .     S
Si27   O137    1.537   1_545 S
Si27   O141    1.630   1_545 S
Si28   O110    1.590   .     S
Si28   O111    1.602   .     S
Si28   O122    1.559   .     S
Si28   O156    1.614   .     S
Si29   O112    1.567   .     S
Si29   C113    1.825   .     S
Si29   C114    1.858   .     S
Si29   C118    1.860   .     S
Si30   O115    1.622   .     S
Si30   C116    1.839   .     S
Si30   O117    1.682   .     S
Si30   O128    1.643   .     S
Si31   C119    1.799   .     S
Si31   O129    1.627   .     S
Si31   C120    1.853   1_554 S
Si31   O175    1.628   1_554 S
Si32   C121    1.876   .     S
Si32   O122    1.587   .     S
Si32   C123    1.888   .     S
Si32   C124    1.862   .     S
Si33   O125    1.637   .     S
Si33   C126    1.897   .     S
Si33   O127    1.665   .     S
Si33   O133    1.609   .     S
Si34   O128    1.661   .     S
Si34   O129    1.594   .     S
Si34   O130    1.629   .     S
Si34   O180    1.638   .     S
Si35   O130    1.645   .     S
Si35   C131    1.853   .     S
Si35   C132    1.769   1_554 S
Si35   O143    1.632   1_554 S
Si36   O133    1.566   .     S
Si36   C134    1.866   .     S
Si36   C135    1.785   .     S
Si36   O140    1.619   .     S
Si37   O136    1.621   .     S
Si37   O137    1.533   .     S
Si37   O138    1.599   .     S
Si37   O147    1.654   .     S
Si38   C139    1.897   .     S
Si38   O140    1.628   .     S
Si38   O141    1.626   .     S
Si38   O182    1.608   .     S
Si39   O142    1.589   .     S
Si39   O143    1.642   .     S
Si39   C144    1.897   .     S
Si39   C145    1.870   .     S
Si40   O147    1.560   .     S
Si40   C148    1.889   .     S
Si40   C149    1.781   .     S
Si40   C150    1.906   .     S
Si41   C151    1.898   .     S
Si41   O152    1.649   .     S
Si41   O181    1.702   1_545 S
Si41   O185    1.572   1_545 S
Si42   C153    1.821   .     S
Si42   C154    1.918   .     S
Si42   C155    1.794   .     S
Si42   O156    1.595   .     S
Si43   C157    1.890   .     S
Si43   O158    1.655   .     S
Si43   C159    1.784   1_545 S
Si43   C191    1.907   1_545 S
Si44   O160    1.636   .     S
Si44   C161    1.852   .     S
Si44   C162    1.894   .     S
Si44   C163    1.925   .     S
Si45   C164    1.802   .     S
Si45   C165    1.863   .     S
Si45   O166    1.573   .     S
Si45   C169    1.865   .     S
Si46   O167    1.637   .     S
Si46   C168    1.939   .     S
Si46   C170    1.838   .     S
Si46   C171    1.880   .     S
Si47   C172    2.007   .     S
Si47   C173    1.821   .     S
Si47   C174    1.877   .     S
Si47   O175    1.634   .     S
Si48   O176    1.613   .     S
Si48   C177    1.893   .     S
Si48   C178    1.884   .     S
Si48   C179    1.840   .     S
Si49   O180    1.665   .     S
Si49   O181    1.683   .     S
Si49   O182    1.644   .     S
Si49   O188    1.628   .     S
Si50   C184    1.882   .     S
Si50   O185    1.630   .     S
Si50   C183    1.858   1_554 S
Si50   C186    1.890   1_554 S
Si51   O187    1.608   .     S
Si51   O188    1.664   .     S
Si51   C189    1.874   .     S
Si51   C190    1.888   .     S
C52    H192    1.096   .     S
C52    H193    1.100   .     S
C52    H194    1.150   .     S
C52    Si2     1.867   1_655 S
C54    H195    1.081   .     S
C54    H196    1.059   .     S
C54    H197    1.102   .     S
C54    Si3     1.876   1_556 S
C55    H198    1.139   .     S
C55    H199    1.095   .     S
C55    H200    1.156   .     S
C56    H201    1.109   .     S
C56    H202    1.144   .     S
C56    H203    1.048   .     S
C56    Si5     1.842   1_655 S
C59    H204    1.129   .     S
C59    H205    1.137   .     S
C59    H206    1.154   .     S
C60    H207    1.114   .     S
C60    H208    1.158   .     S
C60    H209    1.127   .     S
C60    Si7     1.872   1_565 S
O61    Si3     1.596   1_556 S
C62    H210    1.116   .     S
C62    H211    1.075   .     S
C62    H212    1.113   .     S
C63    H213    1.126   .     S
C63    H214    1.068   .     S
C63    H215    1.114   .     S
C63    Si8     1.864   1_655 S
C64    H216    1.095   .     S
C64    H217    1.117   .     S
C64    H218    0.997   .     S
C64    Si8     1.890   1_655 S
C66    H219    1.048   .     S
C66    H220    1.074   .     S
C66    H221    1.043   .     S
C67    H222    1.056   .     S
C67    H223    1.096   .     S
C67    H224    1.068   .     S
C68    H225    1.128   .     S
C68    H226    1.115   .     S
C68    H227    1.098   .     S
C69    H228    1.141   .     S
C69    H229    1.065   .     S
C69    H230    1.151   .     S
C72    H231    1.056   .     S
C72    H232    1.139   .     S
C72    H233    1.147   .     S
C72    Si11    1.773   1_655 S
C74    H234    1.139   .     S
C74    H235    1.094   .     S
C74    H236    1.102   .     S
C74    Si12    1.893   1_556 S
C79    H237    1.091   .     S
C79    H238    1.152   .     S
C79    H239    1.068   .     S
C80    H240    1.137   .     S
C80    H241    1.076   .     S
C80    H242    1.116   .     S
C80    Si12    1.885   1_556 S
C81    H243    1.067   .     S
C81    H244    1.079   .     S
C81    H245    1.068   .     S
C81    Si16    1.881   1_655 S
C82    H246    1.079   .     S
C82    H247    1.087   .     S
C82    H248    1.138   .     S
C82    Si16    1.798   1_655 S
C84    H249    1.049   .     S
C84    H250    1.157   .     S
C84    H251    1.124   .     S
C87    H252    1.127   .     S
C87    H253    1.139   .     S
C87    H254    1.047   .     S
O88    Si1     1.593   1_565 S
C89    H255    1.150   .     S
C89    H256    1.111   .     S
C89    H257    1.096   .     S
C89    Si19    1.834   1_655 S
O91    Si1     1.639   1_565 S
C92    H258    1.105   .     S
C92    H259    1.101   .     S
C92    H260    1.148   .     S
C92    Si20    1.835   1_556 S
O95    Si4     1.575   1_565 S
C96    H261    1.097   .     S
C96    H262    1.134   .     S
C96    H263    1.059   .     S
C96    Si22    1.848   1_655 S
C97    H264    1.045   .     S
C97    H265    1.133   .     S
C97    H266    1.149   .     S
C97    Si22    1.844   1_655 S
C100   H267    1.053   .     S
C100   H268    1.080   .     S
C100   H269    1.136   .     S
C101   H270    1.057   .     S
C101   H271    1.101   .     S
C101   H272    1.134   .     S
C101   Si4     1.864   1_565 S
C102   H273    1.085   .     S
C102   H274    1.103   .     S
C102   H275    1.121   .     S
O107   Si7     1.610   1_565 S
C113   H276    1.109   .     S
C113   H277    1.115   .     S
C113   H278    1.111   .     S
C114   H279    1.097   .     S
C114   H280    1.103   .     S
C114   H281    1.069   .     S
C116   H282    1.096   .     S
C116   H283    1.064   .     S
C116   H284    1.094   .     S
C118   H285    1.126   .     S
C118   H286    1.111   .     S
C118   H287    1.078   .     S
C119   H288    1.148   .     S
C119   H289    1.075   .     S
C119   H290    1.090   .     S
C120   H291    1.095   .     S
C120   H292    1.109   .     S
C120   H293    1.067   .     S
C120   Si31    1.853   1_556 S
C121   H294    1.122   .     S
C121   H295    1.168   .     S
C121   H296    1.095   .     S
C123   H297    1.121   .     S
C123   H298    1.108   .     S
C123   H299    1.044   .     S
C124   H300    1.105   .     S
C124   H301    1.091   .     S
C124   H302    1.106   .     S
C126   H303    1.089   .     S
C126   H304    1.050   .     S
C126   H305    1.161   .     S
C131   H306    1.094   .     S
C131   H307    1.131   .     S
C131   H308    1.034   .     S
C132   H309    1.137   .     S
C132   H310    1.092   .     S
C132   H311    1.080   .     S
C132   Si35    1.769   1_556 S
C134   H312    1.101   .     S
C134   H313    1.099   .     S
C134   H314    1.121   .     S
C135   H315    1.104   .     S
C135   H316    1.090   .     S
C135   H317    1.098   .     S
O137   Si27    1.537   1_565 S
C139   H318    1.091   .     S
C139   H319    1.087   .     S
C139   H320    1.062   .     S
O141   Si27    1.630   1_565 S
O143   Si35    1.632   1_556 S
C144   H321    1.126   .     S
C144   H322    1.094   .     S
C144   H323    1.067   .     S
C145   H324    1.116   .     S
C145   H325    1.117   .     S
C145   H326    1.083   .     S
C146   H327    1.085   .     S
C146   H328    1.127   .     S
C146   H329    1.086   .     S
C146   Si20    1.807   1_556 S
C148   H330    1.047   .     S
C148   H331    1.131   .     S
C148   H332    1.093   .     S
C149   H333    1.112   .     S
C149   H334    1.108   .     S
C149   H335    1.150   .     S
C150   H336    1.121   .     S
C150   H337    1.151   .     S
C150   H338    1.122   .     S
C151   H339    1.098   .     S
C151   H340    1.060   .     S
C151   H341    1.143   .     S
O152   Si2     1.667   1_655 S
C153   H342    1.127   .     S
C153   H343    1.157   .     S
C153   H344    1.067   .     S
C154   H345    1.110   .     S
C154   H346    1.102   .     S
C154   H347    1.106   .     S
C155   H348    1.087   .     S
C155   H349    1.166   .     S
C155   H350    1.106   .     S
C157   H351    1.114   .     S
C157   H352    1.136   .     S
C157   H353    1.092   .     S
O158   Si5     1.608   1_655 S
C159   H354    1.091   .     S
C159   H355    1.155   .     S
C159   H356    1.101   .     S
C159   Si43    1.784   1_565 S
C161   H357    1.114   .     S
C161   H358    1.123   .     S
C161   H359    1.085   .     S
C162   H360    1.071   .     S
C162   H361    1.058   .     S
C162   H362    1.112   .     S
C163   H363    1.087   .     S
C163   H364    1.088   .     S
C163   H365    1.133   .     S
C164   H366    1.088   .     S
C164   H367    1.070   .     S
C164   H368    1.120   .     S
C165   H369    1.150   .     S
C165   H370    1.138   .     S
C165   H371    1.092   .     S
O166   Si14    1.579   1_655 S
O167   Si11    1.589   1_655 S
C168   H372    1.086   .     S
C168   H373    1.093   .     S
C168   H374    1.079   .     S
C169   H375    1.145   .     S
C169   H376    1.149   .     S
C169   H377    1.134   .     S
C170   H378    1.005   .     S
C170   H379    1.125   .     S
C170   H380    1.064   .     S
C171   H381    1.047   .     S
C171   H382    1.153   .     S
C171   H383    1.123   .     S
C172   H384    1.101   .     S
C172   H385    1.109   .     S
C172   H386    1.108   .     S
C173   H387    1.124   .     S
C173   H388    1.096   .     S
C173   H389    1.072   .     S
C174   H390    1.102   .     S
C174   H391    1.089   .     S
C174   H392    1.148   .     S
O175   Si31    1.628   1_556 S
O176   Si14    1.611   1_655 S
C177   H393    1.112   .     S
C177   H394    1.081   .     S
C177   H395    1.158   .     S
C178   H396    1.096   .     S
C178   H397    1.069   .     S
C178   H398    1.111   .     S
C179   H399    1.154   .     S
C179   H400    1.134   .     S
C179   H401    1.139   .     S
O181   Si41    1.702   1_565 S
C183   H402    1.143   .     S
C183   H403    1.117   .     S
C183   H404    1.084   .     S
C183   Si50    1.858   1_556 S
C184   H405    1.153   .     S
C184   H406    1.088   .     S
C184   H407    1.125   .     S
O185   Si41    1.572   1_565 S
C186   H408    1.140   .     S
C186   H409    1.083   .     S
C186   H410    1.143   .     S
C186   Si50    1.890   1_556 S
O187   Si19    1.620   1_655 S
C189   H411    1.100   .     S
C189   H412    1.138   .     S
C189   H413    1.095   .     S
C190   H414    1.124   .     S
C190   H415    1.043   .     S
C190   H416    1.081   .     S
C191   H417    1.059   .     S
C191   H418    1.156   .     S
C191   H419    1.105   .     S
C191   Si43    1.907   1_565 S
