data_333-9-11-16-15-30-5
_audit_creation_date              2025-03-07
_audit_creation_method            'Materials Studio'
_symmetry_space_group_name_H-M    'P1'
_symmetry_Int_Tables_number       1
_symmetry_cell_setting            triclinic
loop_
_symmetry_equiv_pos_as_xyz
  x,y,z
_cell_length_a                    15.7103
_cell_length_b                    18.2694
_cell_length_c                    19.5638
_cell_angle_alpha                 88.2185
_cell_angle_beta                  90.7533
_cell_angle_gamma                 113.4528
loop_
_atom_site_label
_atom_site_type_symbol
_atom_site_fract_x
_atom_site_fract_y
_atom_site_fract_z
_atom_site_U_iso_or_equiv
_atom_site_adp_type
_atom_site_occupancy
Si1    Si    0.02338  -0.13788   0.12423   0.00000  Uiso   1.00
Si2    Si   -0.13833   0.10265   0.48544   0.00000  Uiso   1.00
Si3    Si    0.22113   0.24381   0.81956   0.00000  Uiso   1.00
Si4    Si    0.06070   0.43033   0.83767   0.00000  Uiso   1.00
Si5    Si    0.24867   0.37037   0.70301   0.00000  Uiso   1.00
Si6    Si    0.32601   0.76797  -0.11444   0.00000  Uiso   1.00
Si7    Si    0.31837   0.48330   0.42017   0.00000  Uiso   1.00
Si8    Si    0.03949   0.52688   0.55539   0.00000  Uiso   1.00
Si9    Si    0.24136   0.52586   0.75945   0.00000  Uiso   1.00
Si10   Si    0.24675   0.59171   0.61195   0.00000  Uiso   1.00
Si11   Si    0.26225   0.72373   0.03244   0.00000  Uiso   1.00
Si12   Si   -0.03611   0.72709   0.23013   0.00000  Uiso   1.00
Si13   Si    0.17188   0.84587   0.03548   0.00000  Uiso   1.00
Si14   Si   -0.04935   0.75955   0.51125   0.00000  Uiso   1.00
Si15   Si    0.16372   0.76192   0.26834   0.00000  Uiso   1.00
Si16   Si    0.09743   0.04880   0.11735   0.00000  Uiso   1.00
Si17   Si    0.46720   0.24929  -0.02228   0.00000  Uiso   1.00
Si18   Si    0.37172   0.31095   0.61693   0.00000  Uiso   1.00
Si19   Si    0.40578   0.35148   0.88240   0.00000  Uiso   1.00
Si20   Si    0.51291   0.28404   0.71153   0.00000  Uiso   1.00
Si21   Si    0.45584   0.29835   0.12439   0.00000  Uiso   1.00
Si22   Si    0.52952   0.37341   0.51472   0.00000  Uiso   1.00
Si23   Si    0.41132   0.56814   0.55155   0.00000  Uiso   1.00
Si24   Si    0.54867   0.44356   0.77078   0.00000  Uiso   1.00
Si25   Si    0.39876   0.64920   0.83262   0.00000  Uiso   1.00
Si26   Si    0.55992   0.56164   0.65437   0.00000  Uiso   1.00
Si27   Si    0.62663   0.71138   0.07563   0.00000  Uiso   1.00
Si28   Si    0.31017   0.74417   0.17992   0.00000  Uiso   1.00
Si29   Si    0.69616   0.85198  -0.02511   0.00000  Uiso   1.00
Si30   Si    0.53941   0.72611   0.48502   0.00000  Uiso   1.00
Si31   Si    0.57313   0.70771   0.73684   0.00000  Uiso   1.00
Si32   Si    0.57646   0.87167   0.71144   0.00000  Uiso   1.00
Si33   Si    0.82532   0.14783   0.26852   0.00000  Uiso   1.00
Si34   Si    0.84034  -0.10466   0.31759   0.00000  Uiso   1.00
Si35   Si    0.27044  -0.03081   0.65381   0.00000  Uiso   1.00
Si36   Si    0.75166   0.00481   0.36670   0.00000  Uiso   1.00
Si37   Si    0.89265  -0.09218   0.78097   0.00000  Uiso   1.00
Si38   Si    0.62865   0.19601   0.98923   0.00000  Uiso   1.00
Si39   Si    0.38182  -0.01454   0.52192   0.00000  Uiso   1.00
Si40   Si    1.01109   0.27905   0.23554   0.00000  Uiso   1.00
Si41   Si    0.45160   0.19712   0.25082   0.00000  Uiso   1.00
Si42   Si    0.69527   0.51647   0.56433   0.00000  Uiso   1.00
Si43   Si    0.80676   0.47495   0.36519   0.00000  Uiso   1.00
Si44   Si    0.72250   0.47647   0.85887   0.00000  Uiso   1.00
Si45   Si    0.86154   0.49402   0.63976   0.00000  Uiso   1.00
Si46   Si    0.92206   0.59972   0.12237   0.00000  Uiso   1.00
Si47   Si    0.64189   0.67004   0.22162   0.00000  Uiso   1.00
Si48   Si    0.79979   0.61133   0.44877   0.00000  Uiso   1.00
Si49   Si    0.80788   0.71683   0.32401   0.00000  Uiso   1.00
Si50   Si    0.87086   0.59069   0.76481   0.00000  Uiso   1.00
Si51   Si    0.71740   0.77116   0.84686   0.00000  Uiso   1.00
C52    C    -0.07249  -0.15555   0.05858   0.00000  Uiso   1.00
C53    C    -0.04353   0.17630   0.43657   0.00000  Uiso   1.00
C54    C    -0.09184   0.04712   0.54859   0.00000  Uiso   1.00
C55    C     0.81096   0.16214   0.53236   0.00000  Uiso   1.00
C56    C     0.13011   1.21638   0.88692   0.00000  Uiso   1.00
C57    C     0.20737   1.15037   0.78002   0.00000  Uiso   1.00
C58    C    -0.01260   0.47691   0.87569   0.00000  Uiso   1.00
C59    C     0.98561   0.33700   0.79022   0.00000  Uiso   1.00
C60    C     0.15904   0.36461   0.64030   0.00000  Uiso   1.00
O61    O     0.21204   0.30114   0.76116   0.00000  Uiso   1.00
C62    C     0.20692   0.72478  -0.15036   0.00000  Uiso   1.00
C63    C     0.37064   0.87628   0.86872   0.00000  Uiso   1.00
C64    C     0.36434   0.50549   0.33400   0.00000  Uiso   1.00
C65    C     0.21938   0.51403   0.43216   0.00000  Uiso   1.00
C66    C     0.25897   0.37364   0.43354   0.00000  Uiso   1.00
C67    C     0.05718   0.60166   0.48489   0.00000  Uiso   1.00
C68    C     0.99094   0.42491   0.51464   0.00000  Uiso   1.00
O69    O     0.13570   0.48888   0.78458   0.00000  Uiso   1.00
O70    O     0.27301   0.45758   0.73676   0.00000  Uiso   1.00
O71    O     0.13810   0.54308   0.59153   0.00000  Uiso   1.00
O72    O     0.25499   0.58691   0.69395   0.00000  Uiso   1.00
C73    C     0.28301   0.69168   0.57715   0.00000  Uiso   1.00
C74    C     0.19914   0.61212   0.02881   0.00000  Uiso   1.00
O75    O     0.32209   0.74887  -0.03535   0.00000  Uiso   1.00
O76    O    -0.01266   0.81252   0.19450   0.00000  Uiso   1.00
O77    O     0.18918   0.76599   0.02741   0.00000  Uiso   1.00
O78    O     0.10235   0.83824   0.09669   0.00000  Uiso   1.00
C79    C     0.11462   0.85721   0.95290   0.00000  Uiso   1.00
C80    C     0.28450   0.93417   1.04321   0.00000  Uiso   1.00
C81    C     0.00940   0.74995   0.59484   0.00000  Uiso   1.00
C82    C     0.03064   0.80977   0.43939   0.00000  Uiso   1.00
C83    C     0.88003   0.81630   0.53319   0.00000  Uiso   1.00
O84    O     0.05649   0.71823   0.25112   0.00000  Uiso   1.00
C85    C     0.20033   0.71598   0.34542   0.00000  Uiso   1.00
C86    C     0.19542   0.86216   0.29585   0.00000  Uiso   1.00
O87    O     0.07010  -0.04260   0.14250   0.00000  Uiso   1.00
C88    C     0.00064   0.08197   0.13969   0.00000  Uiso   1.00
C89    C     0.11971   0.06495   0.02564   0.00000  Uiso   1.00
C90    C     0.38644   0.14939  -0.04191   0.00000  Uiso   1.00
C91    C     0.26938   0.22805   0.57638   0.00000  Uiso   1.00
O92    O     0.33465   0.36590   0.66237   0.00000  Uiso   1.00
O93    O     0.31989   0.28175   0.85344   0.00000  Uiso   1.00
O94    O     0.47143   0.31558   0.91760   0.00000  Uiso   1.00
C95    C     0.38042   0.41484   0.94288   0.00000  Uiso   1.00
O96    O     0.41913   0.26847   0.66999   0.00000  Uiso   1.00
C97    C     0.49235   0.22374   0.79051   0.00000  Uiso   1.00
C98    C     0.20711   0.11023   0.16192   0.00000  Uiso   1.00
C99    C     0.39973   0.36296   0.15685   0.00000  Uiso   1.00
O100   O     0.43299   0.26977   0.04867   0.00000  Uiso   1.00
C101   C     0.58092   0.36731   0.12535   0.00000  Uiso   1.00
O102   O     0.44486   0.36704   0.56035   0.00000  Uiso   1.00
C103   C     0.52001   0.26987   0.49591   0.00000  Uiso   1.00
C104   C     0.51413   0.41215   0.42692   0.00000  Uiso   1.00
O105   O     0.39304   0.52265   0.47940   0.00000  Uiso   1.00
O106   O     0.31051   0.55240   0.58340   0.00000  Uiso   1.00
O107   O     0.46048   0.40396   0.81939   0.00000  Uiso   1.00
O108   O     0.55511   0.37356   0.72991   0.00000  Uiso   1.00
O109   O     0.30608   0.57252   0.81912   0.00000  Uiso   1.00
C110   C     0.46100   0.62360   0.90291   0.00000  Uiso   1.00
O111   O     0.38360   0.72530   0.85070   0.00000  Uiso   1.00
O112   O     0.47319   0.53454   0.59941   0.00000  Uiso   1.00
O113   O     0.53065   0.50689   0.72091   0.00000  Uiso   1.00
C114   C     0.50496   0.70706   0.08348   0.00000  Uiso   1.00
C115   C     0.63031   0.61959   0.03370   0.00000  Uiso   1.00
O116   O     0.31710   0.74616   0.10188   0.00000  Uiso   1.00
C117   C     0.30232   0.64285   0.21388   0.00000  Uiso   1.00
C118   C     0.42125   0.82201   0.22085   0.00000  Uiso   1.00
O119   O     0.21987   0.75716   0.20244   0.00000  Uiso   1.00
O120   O     0.68569   0.79195   0.03896   0.00000  Uiso   1.00
C121   C     0.80903   0.93579  -0.03941   0.00000  Uiso   1.00
C122   C     0.60666   0.89611   0.98540   0.00000  Uiso   1.00
O123   O     0.46714   0.66219   0.53560   0.00000  Uiso   1.00
C124   C     0.62538   0.69322   0.45603   0.00000  Uiso   1.00
C125   C     0.48109   0.75043   0.41513   0.00000  Uiso   1.00
C126   C     0.61259   0.82241   0.52508   0.00000  Uiso   1.00
O127   O     0.46834   0.67030   0.76720   0.00000  Uiso   1.00
O128   O     0.58124   0.65129   0.67702   0.00000  Uiso   1.00
C129   C     0.45923   0.85118   0.68002   0.00000  Uiso   1.00
O130   O     0.59488   0.79370   0.70307   0.00000  Uiso   1.00
C131   C     0.59015   0.90852   0.80329   0.00000  Uiso   1.00
C132   C     0.66912   0.96327   0.66276   0.00000  Uiso   1.00
C133   C     0.76562   0.10061   0.18612   0.00000  Uiso   1.00
C134   C     0.77801   0.21816   0.30088   0.00000  Uiso   1.00
C135   C     0.81497  -0.09701   0.22497   0.00000  Uiso   1.00
C136   C     0.97221   0.95741   0.32573   0.00000  Uiso   1.00
C137   C     0.21393  -0.13197   0.69476   0.00000  Uiso   1.00
C138   C     0.18095   0.00545   0.62007   0.00000  Uiso   1.00
C139   C     0.34219   0.03470   0.71934   0.00000  Uiso   1.00
C140   C     0.59728   0.26020   0.66019   0.00000  Uiso   1.00
O141   O     0.78202   0.04252   0.44019   0.00000  Uiso   1.00
O142   O     0.81603   0.07358   0.31563   0.00000  Uiso   1.00
O143   O     0.77823  -0.07367   0.36324   0.00000  Uiso   1.00
C144   C     0.62002  -0.02402   0.35369   0.00000  Uiso   1.00
C145   C     0.98048  -0.11797   0.82862   0.00000  Uiso   1.00
C146   C     1.11880   0.39811   0.90708   0.00000  Uiso   1.00
C147   C     0.90895   0.90459   0.69120   0.00000  Uiso   1.00
C148   C     0.62012   0.14858   0.90332   0.00000  Uiso   1.00
C149   C     0.57511   0.10696   1.05326   0.00000  Uiso   1.00
C150   C     0.75201   0.26372   1.00663   0.00000  Uiso   1.00
O151   O     0.57001   0.24976   0.98393   0.00000  Uiso   1.00
C152   C     0.33106   0.04907   0.47367   0.00000  Uiso   1.00
O153   O     0.34295  -0.03349   0.59587   0.00000  Uiso   1.00
C154   C     0.90784   0.01316   0.79179   0.00000  Uiso   1.00
C155   C     0.35444  -0.11076   0.47871   0.00000  Uiso   1.00
C156   C     0.51438   0.03418   0.52588   0.00000  Uiso   1.00
O157   O     0.93238   0.19326   0.25062   0.00000  Uiso   1.00
C158   C     0.97818   0.32638   0.15985   0.00000  Uiso   1.00
C159   C     1.01522   0.34953   0.30509   0.00000  Uiso   1.00
C160   C     1.12706   0.27517   0.22935   0.00000  Uiso   1.00
O161   O     0.43938   0.22668   0.17703   0.00000  Uiso   1.00
C162   C     0.44583   0.09547   0.24462   0.00000  Uiso   1.00
O163   O     0.62623   0.42745   0.54925   0.00000  Uiso   1.00
O164   O     0.65035   0.55327   0.62082   0.00000  Uiso   1.00
C165   C     0.92311   0.50165   0.32149   0.00000  Uiso   1.00
C166   C     0.56411   0.25589   0.29086   0.00000  Uiso   1.00
C167   C     0.71967   0.46954   0.29720   0.00000  Uiso   1.00
C168   C     0.76663   0.37958   0.41239   0.00000  Uiso   1.00
O169   O     0.64067   0.48558   0.81546   0.00000  Uiso   1.00
C170   C     0.73354   0.38114   0.83868   0.00000  Uiso   1.00
C171   C     0.69982   0.48339   0.95295   0.00000  Uiso   1.00
O172   O     0.96690   0.53537   0.61031   0.00000  Uiso   1.00
O173   O     0.79301   0.52261   0.59385   0.00000  Uiso   1.00
C174   C     0.81818   0.38713   0.63635   0.00000  Uiso   1.00
C175   C     0.35365   0.19516   0.30508   0.00000  Uiso   1.00
C176   C     0.81711   0.50679   0.13074   0.00000  Uiso   1.00
C177   C     1.02072   0.57396   0.14599   0.00000  Uiso   1.00
C178   C     0.93171   0.63727   0.03435   0.00000  Uiso   1.00
O179   O     0.91097   0.66052   0.17601   0.00000  Uiso   1.00
O180   O     0.66657   0.71107   0.14996   0.00000  Uiso   1.00
C181   C     0.57482   0.71789   0.26903   0.00000  Uiso   1.00
C182   C     0.57211   0.56606   0.20887   0.00000  Uiso   1.00
O183   O     0.71812   0.56779   0.49849   0.00000  Uiso   1.00
O184   O     0.82823   0.54386   0.42067   0.00000  Uiso   1.00
O185   O     0.88550   0.67116   0.49089   0.00000  Uiso   1.00
O186   O     0.90717   0.72155   0.29635   0.00000  Uiso   1.00
O187   O     0.73524   0.68353   0.26188   0.00000  Uiso   1.00
O188   O     0.77524   0.66042   0.39009   0.00000  Uiso   1.00
O189   O     0.81580   0.80222   0.34176   0.00000  Uiso   1.00
O190   O     0.81741   0.54667   0.83391   0.00000  Uiso   1.00
O191   O     0.86360   0.51957   0.71587   0.00000  Uiso   1.00
C192   C     0.81010   0.64915   0.72535   0.00000  Uiso   1.00
C193   C     0.99868   0.65446   0.78490   0.00000  Uiso   1.00
O194   O     0.64215   0.71617   0.79819   0.00000  Uiso   1.00
C195   C     0.78399   0.71417   0.88951   0.00000  Uiso   1.00
O196   O     0.78622   0.84647   0.80256   0.00000  Uiso   1.00
O197   O     0.67509   0.80231   0.90681   0.00000  Uiso   1.00
H198   H    -0.11982  -0.12692   0.07540   0.00000  Uiso   1.00
H199   H    -0.10595  -0.21872   0.04231   0.00000  Uiso   1.00
H200   H    -0.03336  -0.11793   0.01603   0.00000  Uiso   1.00
H201   H    -0.08247   0.19189   0.39652   0.00000  Uiso   1.00
H202   H     0.00211   0.14788   0.41560   0.00000  Uiso   1.00
H203   H     0.00449   0.22798   0.46241   0.00000  Uiso   1.00
H204   H    -0.08195  -0.00328   0.52344   0.00000  Uiso   1.00
H205   H    -0.14860   0.01735   0.58516   0.00000  Uiso   1.00
H206   H    -0.02714   0.09148   0.57327   0.00000  Uiso   1.00
H207   H     0.75825   0.12371   0.57275   0.00000  Uiso   1.00
H208   H     0.77162   0.18309   0.49415   0.00000  Uiso   1.00
H209   H     0.86571   0.21212   0.55498   0.00000  Uiso   1.00
H210   H     0.06752   1.21355   0.85815   0.00000  Uiso   1.00
H211   H     0.15099   1.25538   0.93183   0.00000  Uiso   1.00
H212   H     0.11685   1.15238   0.89955   0.00000  Uiso   1.00
H213   H     0.25593   1.16601   0.73674   0.00000  Uiso   1.00
H214   H     0.13389   1.11943   0.75555   0.00000  Uiso   1.00
H215   H     0.21316   1.10573   0.81355   0.00000  Uiso   1.00
H216   H    -0.05543   0.48574   0.83251   0.00000  Uiso   1.00
H217   H     0.03631   0.53109   0.90076   0.00000  Uiso   1.00
H218   H    -0.05089   0.42781   0.91463   0.00000  Uiso   1.00
H219   H     0.94138   0.28234   0.82006   0.00000  Uiso   1.00
H220   H     1.02700   0.31402   0.75778   0.00000  Uiso   1.00
H221   H     0.93752   0.35222   0.75655   0.00000  Uiso   1.00
H222   H     0.15177   0.31085   0.61377   0.00000  Uiso   1.00
H223   H     0.18162   0.41679   0.60090   0.00000  Uiso   1.00
H224   H     0.09328   0.35435   0.66424   0.00000  Uiso   1.00
H225   H     0.20057   0.75477  -0.19693   0.00000  Uiso   1.00
H226   H     0.16560   0.72551  -0.10582   0.00000  Uiso   1.00
H227   H     0.18822   0.66390  -0.15760   0.00000  Uiso   1.00
H228   H     0.44215   0.91079   0.89355   0.00000  Uiso   1.00
H229   H     0.32485   0.90877   0.88304   0.00000  Uiso   1.00
H230   H     0.37997   0.88754   0.81239   0.00000  Uiso   1.00
H231   H     0.40518   0.47044   0.32353   0.00000  Uiso   1.00
H232   H     0.42068   0.56789   0.33474   0.00000  Uiso   1.00
H233   H     0.30760   0.50150   0.29453   0.00000  Uiso   1.00
H234   H     0.19757   0.49381   0.48624   0.00000  Uiso   1.00
H235   H     0.16081   0.48808   0.39531   0.00000  Uiso   1.00
H236   H     0.24068   0.57751   0.42428   0.00000  Uiso   1.00
H237   H     0.30076   0.35443   0.47013   0.00000  Uiso   1.00
H238   H     0.25270   0.33948   0.38891   0.00000  Uiso   1.00
H239   H     0.19332   0.35942   0.45565   0.00000  Uiso   1.00
H240   H     0.09800   0.58897   0.44350   0.00000  Uiso   1.00
H241   H     0.10085   0.66531   0.49175   0.00000  Uiso   1.00
H242   H    -0.00885   0.59305   0.46121   0.00000  Uiso   1.00
H243   H     1.02535   0.41699   0.46761   0.00000  Uiso   1.00
H244   H     0.91780   0.40501   0.51246   0.00000  Uiso   1.00
H245   H     1.00283   0.38445   0.55231   0.00000  Uiso   1.00
H246   H     0.25162   0.72121   0.60545   0.00000  Uiso   1.00
H247   H     0.27142   0.70341   0.51885   0.00000  Uiso   1.00
H248   H     0.36021   0.71944   0.58456   0.00000  Uiso   1.00
H249   H     0.17731   0.57441   0.07988   0.00000  Uiso   1.00
H250   H     0.23932   0.58830  -0.00164   0.00000  Uiso   1.00
H251   H     0.13195   0.60295   0.00332   0.00000  Uiso   1.00
H252   H     0.03601   0.81963   0.95764   0.00000  Uiso   1.00
H253   H     0.14899   0.84187   0.90725   0.00000  Uiso   1.00
H254   H     0.12203   0.91952   0.94961   0.00000  Uiso   1.00
H255   H     0.27280   0.97017   1.08372   0.00000  Uiso   1.00
H256   H     0.29245   0.97345   0.99786   0.00000  Uiso   1.00
H257   H     0.34230   0.91648   1.05133   0.00000  Uiso   1.00
H258   H    -0.03666   0.70668   0.63512   0.00000  Uiso   1.00
H259   H     0.03639   0.80717   0.61322   0.00000  Uiso   1.00
H260   H     0.07096   0.73560   0.58326   0.00000  Uiso   1.00
H261   H     0.09677   0.84898   0.45837   0.00000  Uiso   1.00
H262   H    -0.00178   0.83968   0.40322   0.00000  Uiso   1.00
H263   H     0.05048   0.76836   0.40872   0.00000  Uiso   1.00
H264   H     0.92691   0.87292   0.54970   0.00000  Uiso   1.00
H265   H     0.83624   0.78972   0.57638   0.00000  Uiso   1.00
H266   H     0.84387   0.83175   0.48714   0.00000  Uiso   1.00
H267   H     0.27802   0.73052   0.34314   0.00000  Uiso   1.00
H268   H     0.15831   0.64988   0.34248   0.00000  Uiso   1.00
H269   H     0.17774   0.73681   0.39081   0.00000  Uiso   1.00
H270   H     0.18878   0.89604   0.25218   0.00000  Uiso   1.00
H271   H     0.26753   0.88490   0.30467   0.00000  Uiso   1.00
H272   H     0.16414   0.87284   0.34287   0.00000  Uiso   1.00
H273   H    -0.06249   0.04142   0.11289   0.00000  Uiso   1.00
H274   H     0.01814   0.14163   0.11813   0.00000  Uiso   1.00
H275   H    -0.01196   0.07587   0.19452   0.00000  Uiso   1.00
H276   H     0.05928   0.01641   0.00105   0.00000  Uiso   1.00
H277   H     0.19045   0.06833   0.01007   0.00000  Uiso   1.00
H278   H     0.11680   0.12344   0.01300   0.00000  Uiso   1.00
H279   H     0.38074   0.11155   0.00350   0.00000  Uiso   1.00
H280   H     0.41540   0.12613  -0.07935   0.00000  Uiso   1.00
H281   H     0.31555   0.14307  -0.05264   0.00000  Uiso   1.00
H282   H     0.29409   0.19056   0.54807   0.00000  Uiso   1.00
H283   H     0.22799   0.25254   0.54174   0.00000  Uiso   1.00
H284   H     0.23534   0.18947   0.61854   0.00000  Uiso   1.00
H285   H     0.33806   0.38030   0.98733   0.00000  Uiso   1.00
H286   H     0.35185   0.45426   0.91603   0.00000  Uiso   1.00
H287   H     0.45057   0.45901   0.95786   0.00000  Uiso   1.00
H288   H     0.51093   0.17211   0.78009   0.00000  Uiso   1.00
H289   H     0.41861   0.20270   0.80415   0.00000  Uiso   1.00
H290   H     0.54349   0.25999   0.82957   0.00000  Uiso   1.00
H291   H     0.23032   0.17357   0.15277   0.00000  Uiso   1.00
H292   H     0.26317   0.08792   0.14886   0.00000  Uiso   1.00
H293   H     0.19576   0.09185   0.21640   0.00000  Uiso   1.00
H294   H     0.43383   0.42565   0.14369   0.00000  Uiso   1.00
H295   H     0.37863   0.35727   0.21033   0.00000  Uiso   1.00
H296   H     0.33477   0.34772   0.12849   0.00000  Uiso   1.00
H297   H     0.59364   0.37768   0.18541   0.00000  Uiso   1.00
H298   H     0.59433   0.42617   0.09929   0.00000  Uiso   1.00
H299   H     0.61970   0.33749   0.10269   0.00000  Uiso   1.00
H300   H     0.49120   0.25269   0.44593   0.00000  Uiso   1.00
H301   H     0.47389   0.22674   0.53794   0.00000  Uiso   1.00
H302   H     0.58900   0.26351   0.49768   0.00000  Uiso   1.00
H303   H     0.44347   0.39807   0.41691   0.00000  Uiso   1.00
H304   H     0.54122   0.38420   0.38765   0.00000  Uiso   1.00
H305   H     0.55813   0.47778   0.42934   0.00000  Uiso   1.00
H306   H     0.51305   0.67342   0.92355   0.00000  Uiso   1.00
H307   H     0.49624   0.58376   0.88549   0.00000  Uiso   1.00
H308   H     0.41138   0.59344   0.94362   0.00000  Uiso   1.00
H309   H     0.50075   0.75121   0.12031   0.00000  Uiso   1.00
H310   H     0.46758   0.64770   0.10966   0.00000  Uiso   1.00
H311   H     0.47321   0.70472   0.03244   0.00000  Uiso   1.00
H312   H     0.70239   0.62477   0.03466   0.00000  Uiso   1.00
H313   H     0.60819   0.61338  -0.02192   0.00000  Uiso   1.00
H314   H     0.58659   0.56880   0.06309   0.00000  Uiso   1.00
H315   H     0.34942   0.62945   0.17919   0.00000  Uiso   1.00
H316   H     0.23082   0.59733   0.20590   0.00000  Uiso   1.00
H317   H     0.33221   0.64818   0.26402   0.00000  Uiso   1.00
H318   H     0.47889   0.84892   0.18682   0.00000  Uiso   1.00
H319   H     0.44079   0.79810   0.26685   0.00000  Uiso   1.00
H320   H     0.40012   0.87245   0.23186   0.00000  Uiso   1.00
H321   H     0.86147   0.91913  -0.06258   0.00000  Uiso   1.00
H322   H     0.82456   0.95963   0.01191   0.00000  Uiso   1.00
H323   H     0.80431   0.98421  -0.07446   0.00000  Uiso   1.00
H324   H     0.62933   0.96054   0.96131   0.00000  Uiso   1.00
H325   H     0.59753   0.89806   1.04272   0.00000  Uiso   1.00
H326   H     0.53884   0.85722   0.95817   0.00000  Uiso   1.00
H327   H     0.66813   0.67570   0.49216   0.00000  Uiso   1.00
H328   H     0.67398   0.73787   0.42262   0.00000  Uiso   1.00
H329   H     0.59070   0.64155   0.42168   0.00000  Uiso   1.00
H330   H     0.43191   0.77401   0.43296   0.00000  Uiso   1.00
H331   H     0.44623   0.69460   0.38389   0.00000  Uiso   1.00
H332   H     0.53391   0.79390   0.38107   0.00000  Uiso   1.00
H333   H     0.62992   0.81053   0.57716   0.00000  Uiso   1.00
H334   H     0.57020   0.85994   0.53067   0.00000  Uiso   1.00
H335   H     0.67564   0.85621   0.49592   0.00000  Uiso   1.00
H336   H     0.43171   0.89297   0.70192   0.00000  Uiso   1.00
H337   H     0.40683   0.79281   0.70003   0.00000  Uiso   1.00
H338   H     0.45737   0.85427   0.62250   0.00000  Uiso   1.00
H339   H     0.57755   0.96441   0.80957   0.00000  Uiso   1.00
H340   H     0.65981   0.91962   0.82201   0.00000  Uiso   1.00
H341   H     0.53739   0.86025   0.83578   0.00000  Uiso   1.00
H342   H     0.64293   1.01453   0.65850   0.00000  Uiso   1.00
H343   H     0.67671   0.95128   0.60716   0.00000  Uiso   1.00
H344   H     0.74125   0.98391   0.68287   0.00000  Uiso   1.00
H345   H     0.81103   0.07390   0.16102   0.00000  Uiso   1.00
H346   H     0.76244   0.15239   0.15683   0.00000  Uiso   1.00
H347   H     0.69631   0.05240   0.19259   0.00000  Uiso   1.00
H348   H     0.70041   0.19411   0.29086   0.00000  Uiso   1.00
H349   H     0.81187   0.27344   0.27413   0.00000  Uiso   1.00
H350   H     0.78492   0.22022   0.35615   0.00000  Uiso   1.00
H351   H     0.84256  -0.13404   0.19382   0.00000  Uiso   1.00
H352   H     0.83058  -0.03900   0.20228   0.00000  Uiso   1.00
H353   H     0.73785  -0.12635   0.21613   0.00000  Uiso   1.00
H354   H     0.99171   1.02015   0.30884   0.00000  Uiso   1.00
H355   H     1.01031   0.92686   0.29585   0.00000  Uiso   1.00
H356   H     0.99977   0.95323   0.37655   0.00000  Uiso   1.00
H357   H     0.19427  -0.17607   0.65424   0.00000  Uiso   1.00
H358   H     0.15024  -0.13447   0.72104   0.00000  Uiso   1.00
H359   H     0.26397  -0.13796   0.73158   0.00000  Uiso   1.00
H360   H     0.13107  -0.04341   0.58665   0.00000  Uiso   1.00
H361   H     0.22744   0.06202   0.59170   0.00000  Uiso   1.00
H362   H     0.13587   0.01476   0.66009   0.00000  Uiso   1.00
H363   H     0.37431   0.09415   0.68978   0.00000  Uiso   1.00
H364   H     0.39927   0.01933   0.73730   0.00000  Uiso   1.00
H365   H     0.29924   0.03782   0.76318   0.00000  Uiso   1.00
H366   H     0.62025   0.30199   0.61524   0.00000  Uiso   1.00
H367   H     0.56551   0.19516   0.64477   0.00000  Uiso   1.00
H368   H     0.65727   0.26226   0.68736   0.00000  Uiso   1.00
H369   H     0.59883  -0.04511   0.30102   0.00000  Uiso   1.00
H370   H     0.60156   0.02744   0.35903   0.00000  Uiso   1.00
H371   H     0.57619  -0.07377   0.39122   0.00000  Uiso   1.00
H372   H     1.05532  -0.07278   0.82487   0.00000  Uiso   1.00
H373   H     0.97114  -0.18020   0.80680   0.00000  Uiso   1.00
H374   H     0.96665  -0.11367   0.88408   0.00000  Uiso   1.00
H375   H     1.17832   0.38940   0.88119   0.00000  Uiso   1.00
H376   H     1.06660   0.33986   0.93110   0.00000  Uiso   1.00
H377   H     1.14503   0.44466   0.94450   0.00000  Uiso   1.00
H378   H     0.88194   0.83869   0.67663   0.00000  Uiso   1.00
H379   H     0.98311   0.93607   0.67568   0.00000  Uiso   1.00
H380   H     0.86235   0.92773   0.66290   0.00000  Uiso   1.00
H381   H     0.54447   0.10576   0.89224   0.00000  Uiso   1.00
H382   H     0.66130   0.11160   0.90354   0.00000  Uiso   1.00
H383   H     0.64245   0.19836   0.86375   0.00000  Uiso   1.00
H384   H     0.59081   0.12721   1.10771   0.00000  Uiso   1.00
H385   H     0.60756   0.06605   1.04618   0.00000  Uiso   1.00
H386   H     0.50009   0.07465   1.04202   0.00000  Uiso   1.00
H387   H     0.76639   0.27574   1.06220   0.00000  Uiso   1.00
H388   H     0.77447   0.32293   0.97541   0.00000  Uiso   1.00
H389   H     0.78136   0.21767   0.99143   0.00000  Uiso   1.00
H390   H     0.36910   0.07232   0.42682   0.00000  Uiso   1.00
H391   H     0.34272   0.09939   0.50466   0.00000  Uiso   1.00
H392   H     0.25584   0.00996   0.46243   0.00000  Uiso   1.00
H393   H     0.95610   0.04226   0.83430   0.00000  Uiso   1.00
H394   H     0.83749   0.01258   0.79770   0.00000  Uiso   1.00
H395   H     0.93915   0.04974   0.74711   0.00000  Uiso   1.00
H396   H     0.38760  -0.14193   0.51236   0.00000  Uiso   1.00
H397   H     0.38503  -0.09838   0.42640   0.00000  Uiso   1.00
H398   H     0.27650  -0.14319   0.47391   0.00000  Uiso   1.00
H399   H     0.55011   0.00774   0.49429   0.00000  Uiso   1.00
H400   H     0.53131   0.01564   0.57390   0.00000  Uiso   1.00
H401   H     0.54648   0.10016   0.51829   0.00000  Uiso   1.00
H402   H     0.91023   0.33133   0.16586   0.00000  Uiso   1.00
H403   H     0.97540   0.29271   0.11434   0.00000  Uiso   1.00
H404   H     1.03449   0.39247   0.15433   0.00000  Uiso   1.00
H405   H     1.02711   0.32323   0.35345   0.00000  Uiso   1.00
H406   H     0.94273   0.34475   0.31384   0.00000  Uiso   1.00
H407   H     1.07202   0.40921   0.30219   0.00000  Uiso   1.00
H408   H     1.13929   0.22839   0.26436   0.00000  Uiso   1.00
H409   H     1.18608   0.33645   0.22990   0.00000  Uiso   1.00
H410   H     1.13355   0.25894   0.17716   0.00000  Uiso   1.00
H411   H     0.44121   0.07419   0.29846   0.00000  Uiso   1.00
H412   H     0.50522   0.08839   0.22364   0.00000  Uiso   1.00
H413   H     0.38151   0.06315   0.21958   0.00000  Uiso   1.00
H414   H     0.97807   0.51548   0.36016   0.00000  Uiso   1.00
H415   H     0.93682   0.55676   0.29027   0.00000  Uiso   1.00
H416   H     0.91591   0.45744   0.28466   0.00000  Uiso   1.00
H417   H     0.56271   0.30572   0.31534   0.00000  Uiso   1.00
H418   H     0.62668   0.27196   0.25175   0.00000  Uiso   1.00
H419   H     0.57524   0.21773   0.33307   0.00000  Uiso   1.00
H420   H     0.70487   0.41139   0.27380   0.00000  Uiso   1.00
H421   H     0.74208   0.52247   0.26026   0.00000  Uiso   1.00
H422   H     0.65830   0.46825   0.32263   0.00000  Uiso   1.00
H423   H     0.69347   0.33289   0.40490   0.00000  Uiso   1.00
H424   H     0.77467   0.39705   0.46527   0.00000  Uiso   1.00
H425   H     0.82363   0.36059   0.40374   0.00000  Uiso   1.00
H426   H     0.79708   0.37808   0.86198   0.00000  Uiso   1.00
H427   H     0.73228   0.36821   0.78391   0.00000  Uiso   1.00
H428   H     0.67804   0.33242   0.86428   0.00000  Uiso   1.00
H429   H     0.74391   0.45706   0.97937   0.00000  Uiso   1.00
H430   H     0.63064   0.44109   0.96247   0.00000  Uiso   1.00
H431   H     0.72591   0.54585   0.96722   0.00000  Uiso   1.00
H432   H     0.88118   0.36795   0.64040   0.00000  Uiso   1.00
H433   H     0.77295   0.36416   0.59373   0.00000  Uiso   1.00
H434   H     0.78879   0.35880   0.68381   0.00000  Uiso   1.00
H435   H     0.31264   0.21927   0.27361   0.00000  Uiso   1.00
H436   H     0.38555   0.23668   0.34804   0.00000  Uiso   1.00
H437   H     0.32078   0.13584   0.32459   0.00000  Uiso   1.00
H438   H     0.81331   0.48010   0.18106   0.00000  Uiso   1.00
H439   H     0.81856   0.46214   0.09543   0.00000  Uiso   1.00
H440   H     0.74803   0.51372   0.12607   0.00000  Uiso   1.00
H441   H     1.02360   0.56286   0.20138   0.00000  Uiso   1.00
H442   H     1.08385   0.62721   0.13422   0.00000  Uiso   1.00
H443   H     1.02204   0.52637   0.11331   0.00000  Uiso   1.00
H444   H     0.93572   0.59002   0.00277   0.00000  Uiso   1.00
H445   H     0.99039   0.69720   0.03702   0.00000  Uiso   1.00
H446   H     0.86813   0.64615   0.02053   0.00000  Uiso   1.00
H447   H     0.58424   0.77549   0.24393   0.00000  Uiso   1.00
H448   H     0.59872   0.72438   0.32358   0.00000  Uiso   1.00
H449   H     0.50468   0.67776   0.27436   0.00000  Uiso   1.00
H450   H     0.50362   0.55916   0.18933   0.00000  Uiso   1.00
H451   H     0.56250   0.53559   0.26373   0.00000  Uiso   1.00
H452   H     0.60419   0.53998   0.17353   0.00000  Uiso   1.00
H453   H     0.81507   0.65603   0.66801   0.00000  Uiso   1.00
H454   H     0.84829   0.71212   0.73819   0.00000  Uiso   1.00
H455   H     0.73928   0.63394   0.74101   0.00000  Uiso   1.00
H456   H     1.02185   0.71599   0.76351   0.00000  Uiso   1.00
H457   H     1.03921   0.62362   0.76543   0.00000  Uiso   1.00
H458   H     1.00733   0.65817   0.83999   0.00000  Uiso   1.00
H459   H     0.73682   0.65155   0.89101   0.00000  Uiso   1.00
H460   H     0.80041   0.72702   0.94237   0.00000  Uiso   1.00
H461   H     0.84771   0.73273   0.85883   0.00000  Uiso   1.00
loop_
_geom_bond_atom_site_label_1
_geom_bond_atom_site_label_2
_geom_bond_distance
_geom_bond_site_symmetry_2
_ccdc_geom_bond_type
Si1    C52     1.900   .     S
Si1    O87     1.647   .     S
Si1    O76     1.602   1_545 S
Si1    O78     1.576   1_545 S
Si2    C53     1.818   .     S
Si2    C54     1.891   .     S
Si2    C55     1.852   1_455 S
Si2    O141    1.579   1_455 S
Si3    O61     1.570   .     S
Si3    O93     1.572   .     S
Si3    C56     1.863   1_545 S
Si3    C57     1.828   1_545 S
Si4    C58     1.856   .     S
Si4    O69     1.603   .     S
Si4    C59     1.905   1_455 S
Si4    C146    1.836   1_455 S
Si5    C60     1.829   .     S
Si5    O61     1.604   .     S
Si5    O70     1.642   .     S
Si5    O92     1.607   .     S
Si6    C62     1.855   .     S
Si6    O75     1.572   .     S
Si6    C63     1.838   1_554 S
Si6    O111    1.582   1_554 S
Si7    C64     1.812   .     S
Si7    C65     1.871   .     S
Si7    C66     1.854   .     S
Si7    O105    1.606   .     S
Si8    C67     1.854   .     S
Si8    O71     1.615   .     S
Si8    C68     1.906   1_455 S
Si8    O172    1.632   1_455 S
Si9    O69     1.600   .     S
Si9    O70     1.592   .     S
Si9    O72     1.631   .     S
Si9    O109    1.570   .     S
Si10   O71     1.631   .     S
Si10   O72     1.610   .     S
Si10   C73     1.797   .     S
Si10   O106    1.563   .     S
Si11   C74     1.882   .     S
Si11   O75     1.583   .     S
Si11   O77     1.619   .     S
Si11   O116    1.574   .     S
Si12   O76     1.593   .     S
Si12   O84     1.575   .     S
Si12   O179    1.595   1_455 S
Si12   O186    1.560   1_455 S
Si13   O77     1.600   .     S
Si13   O78     1.597   .     S
Si13   C79     1.885   1_554 S
Si13   C80     1.869   1_554 S
Si14   C81     1.905   .     S
Si14   C82     1.856   .     S
Si14   C83     1.856   1_455 S
Si14   O185    1.590   1_455 S
Si15   O84     1.587   .     S
Si15   C85     1.895   .     S
Si15   C86     1.794   .     S
Si15   O119    1.595   .     S
Si16   O87     1.612   .     S
Si16   C88     1.907   .     S
Si16   C89     1.825   .     S
Si16   C98     1.863   .     S
Si17   C90     1.810   .     S
Si17   O100    1.602   .     S
Si17   O94     1.644   1_554 S
Si17   O151    1.615   1_554 S
Si18   C91     1.900   .     S
Si18   O92     1.635   .     S
Si18   O96     1.620   .     S
Si18   O102    1.619   .     S
Si19   O93     1.556   .     S
Si19   O94     1.568   .     S
Si19   C95     1.834   .     S
Si19   O107    1.574   .     S
Si20   O96     1.600   .     S
Si20   C97     1.825   .     S
Si20   O108    1.553   .     S
Si20   C140    1.865   .     S
Si21   C99     1.861   .     S
Si21   O100    1.575   .     S
Si21   C101    1.865   .     S
Si21   O161    1.580   .     S
Si22   O102    1.575   .     S
Si22   C103    1.885   .     S
Si22   C104    1.887   .     S
Si22   O163    1.600   .     S
Si23   O105    1.624   .     S
Si23   O106    1.622   .     S
Si23   O112    1.617   .     S
Si23   O123    1.610   .     S
Si24   O107    1.594   .     S
Si24   O108    1.566   .     S
Si24   O113    1.598   .     S
Si24   O169    1.602   .     S
Si25   O109    1.594   .     S
Si25   C110    1.831   .     S
Si25   O111    1.553   .     S
Si25   O127    1.629   .     S
Si26   O112    1.648   .     S
Si26   O113    1.573   .     S
Si26   O128    1.611   .     S
Si26   O164    1.636   .     S
Si27   C114    1.889   .     S
Si27   C115    1.911   .     S
Si27   O120    1.552   .     S
Si27   O180    1.577   .     S
Si28   O116    1.530   .     S
Si28   C117    1.904   .     S
Si28   C118    1.941   .     S
Si28   O119    1.598   .     S
Si29   O120    1.605   .     S
Si29   C121    1.842   .     S
Si29   C122    1.895   1_554 S
Si29   O197    1.591   1_554 S
Si30   O123    1.592   .     S
Si30   C124    1.787   .     S
Si30   C125    1.778   .     S
Si30   C126    1.866   .     S
Si31   O127    1.623   .     S
Si31   O128    1.622   .     S
Si31   O130    1.592   .     S
Si31   O194    1.576   .     S
Si32   C129    1.829   .     S
Si32   O130    1.576   .     S
Si32   C131    1.918   .     S
Si32   C132    1.956   .     S
Si33   C133    1.904   .     S
Si33   C134    1.851   .     S
Si33   O142    1.574   .     S
Si33   O157    1.590   .     S
Si34   C135    1.863   .     S
Si34   O143    1.601   .     S
Si34   C136    1.933   1_545 S
Si34   O189    1.643   1_545 S
Si35   C137    1.862   .     S
Si35   C138    1.882   .     S
Si35   C139    1.825   .     S
Si35   O153    1.633   .     S
Si36   O141    1.597   .     S
Si36   O142    1.593   .     S
Si36   O143    1.649   .     S
Si36   C144    1.936   .     S
Si37   C145    1.858   .     S
Si37   C154    1.861   .     S
Si37   C147    1.784   1_545 S
Si37   O196    1.651   1_545 S
Si38   C148    1.894   .     S
Si38   C149    1.933   .     S
Si38   C150    1.872   .     S
Si38   O151    1.592   .     S
Si39   C152    1.878   .     S
Si39   O153    1.552   .     S
Si39   C155    1.863   .     S
Si39   C156    1.913   .     S
Si40   O157    1.585   .     S
Si40   C158    1.861   .     S
Si40   C159    1.885   .     S
Si40   C160    1.857   .     S
Si41   O161    1.562   .     S
Si41   C162    1.831   .     S
Si41   C166    1.843   .     S
Si41   C175    1.869   .     S
Si42   O163    1.589   .     S
Si42   O164    1.617   .     S
Si42   O173    1.596   .     S
Si42   O183    1.528   .     S
Si43   C165    1.901   .     S
Si43   C167    1.872   .     S
Si43   C168    1.824   .     S
Si43   O184    1.617   .     S
Si44   O169    1.592   .     S
Si44   C170    1.872   .     S
Si44   C171    1.897   .     S
Si44   O190    1.601   .     S
Si45   O172    1.626   .     S
Si45   O173    1.622   .     S
Si45   C174    1.797   .     S
Si45   O191    1.570   .     S
Si46   C176    1.841   .     S
Si46   C177    1.840   .     S
Si46   C178    1.819   .     S
Si46   O179    1.612   .     S
Si47   O180    1.548   .     S
Si47   C181    1.883   .     S
Si47   C182    1.799   .     S
Si47   O187    1.589   .     S
Si48   O183    1.548   .     S
Si48   O184    1.584   .     S
Si48   O185    1.594   .     S
Si48   O188    1.572   .     S
Si49   O186    1.627   .     S
Si49   O187    1.615   .     S
Si49   O188    1.584   .     S
Si49   O189    1.564   .     S
Si50   O190    1.614   .     S
Si50   O191    1.604   .     S
Si50   C192    1.841   .     S
Si50   C193    1.921   .     S
Si51   O194    1.549   .     S
Si51   C195    1.914   .     S
Si51   O196    1.606   .     S
Si51   O197    1.583   .     S
C52    H198    1.123   .     S
C52    H199    1.116   .     S
C52    H200    1.088   .     S
C53    H201    1.087   .     S
C53    H202    1.127   .     S
C53    H203    1.081   .     S
C54    H204    1.122   .     S
C54    H205    1.100   .     S
C54    H206    1.131   .     S
C55    H207    1.150   .     S
C55    H208    1.116   .     S
C55    H209    1.077   .     S
C55    Si2     1.852   1_655 S
C56    H210    1.111   .     S
C56    H211    1.110   .     S
C56    H212    1.123   .     S
C56    Si3     1.863   1_565 S
C57    H213    1.100   .     S
C57    H214    1.168   .     S
C57    H215    1.062   .     S
C57    Si3     1.828   1_565 S
C58    H216    1.120   .     S
C58    H217    1.107   .     S
C58    H218    1.135   .     S
C59    H219    1.115   .     S
C59    H220    1.117   .     S
C59    H221    1.107   .     S
C59    Si4     1.905   1_655 S
C60    H222    1.090   .     S
C60    H223    1.149   .     S
C60    H224    1.084   .     S
C62    H225    1.073   .     S
C62    H226    1.097   .     S
C62    H227    1.045   .     S
C63    H228    1.156   .     S
C63    H229    1.142   .     S
C63    H230    1.116   .     S
C63    Si6     1.838   1_556 S
C64    H231    1.096   .     S
C64    H232    1.132   .     S
C64    H233    1.153   .     S
C65    H234    1.121   .     S
C65    H235    1.117   .     S
C65    H236    1.078   .     S
C66    H237    1.105   .     S
C66    H238    1.070   .     S
C66    H239    1.054   .     S
C67    H240    1.124   .     S
C67    H241    1.101   .     S
C67    H242    1.085   .     S
C68    H243    1.115   .     S
C68    H244    1.059   .     S
C68    H245    1.094   .     S
C68    Si8     1.906   1_655 S
C73    H246    1.038   .     S
C73    H247    1.179   .     S
C73    H248    1.122   .     S
C74    H249    1.170   .     S
C74    H250    1.090   .     S
C74    H251    1.114   .     S
O76    Si1     1.602   1_565 S
O78    Si1     1.576   1_565 S
C79    H252    1.153   .     S
C79    H253    1.147   .     S
C79    H254    1.097   .     S
C79    Si13    1.885   1_556 S
C80    H255    1.108   .     S
C80    H256    1.100   .     S
C80    H257    1.087   .     S
C80    Si13    1.869   1_556 S
C81    H258    1.136   .     S
C81    H259    1.034   .     S
C81    H260    1.126   .     S
C82    H261    1.070   .     S
C82    H262    1.117   .     S
C82    H263    1.118   .     S
C83    H264    1.061   .     S
C83    H265    1.071   .     S
C83    H266    1.146   .     S
C83    Si14    1.856   1_655 S
C85    H267    1.142   .     S
C85    H268    1.125   .     S
C85    H269    1.094   .     S
C86    H270    1.068   .     S
C86    H271    1.054   .     S
C86    H272    1.107   .     S
C88    H273    1.110   .     S
C88    H274    1.085   .     S
C88    H275    1.088   .     S
C89    H276    1.124   .     S
C89    H277    1.134   .     S
C89    H278    1.108   .     S
C90    H279    1.091   .     S
C90    H280    1.052   .     S
C90    H281    1.091   .     S
C91    H282    1.081   .     S
C91    H283    1.133   .     S
C91    H284    1.067   .     S
O94    Si17    1.644   1_556 S
C95    H285    1.115   .     S
C95    H286    1.106   .     S
C95    H287    1.118   .     S
C97    H288    1.118   .     S
C97    H289    1.099   .     S
C97    H290    1.122   .     S
C98    H291    1.076   .     S
C98    H292    1.142   .     S
C98    H293    1.103   .     S
C99    H294    1.078   .     S
C99    H295    1.091   .     S
C99    H296    1.093   .     S
C101   H297    1.197   .     S
C101   H298    1.118   .     S
C101   H299    1.073   .     S
C103   H300    1.074   .     S
C103   H301    1.159   .     S
C103   H302    1.135   .     S
C104   H303    1.052   .     S
C104   H304    1.113   .     S
C104   H305    1.123   .     S
C110   H306    1.040   .     S
C110   H307    1.137   .     S
C110   H308    1.092   .     S
O111   Si6     1.582   1_556 S
C114   H309    1.120   .     S
C114   H310    1.118   .     S
C114   H311    1.105   .     S
C115   H312    1.098   .     S
C115   H313    1.133   .     S
C115   H314    1.064   .     S
C117   H315    1.111   .     S
C117   H316    1.113   .     S
C117   H317    1.072   .     S
C118   H318    1.071   .     S
C118   H319    1.082   .     S
C118   H320    1.124   .     S
C121   H321    1.093   .     S
C121   H322    1.092   .     S
C121   H323    1.128   .     S
C122   H324    1.171   .     S
C122   H325    1.136   .     S
C122   H326    1.153   .     S
C122   Si29    1.895   1_556 S
C124   H327    1.095   .     S
C124   H328    1.077   .     S
C124   H329    1.122   .     S
C125   H330    1.089   .     S
C125   H331    1.140   .     S
C125   H332    1.105   .     S
C126   H333    1.089   .     S
C126   H334    1.138   .     S
C126   H335    1.093   .     S
C129   H336    1.114   .     S
C129   H337    1.119   .     S
C129   H338    1.126   .     S
C131   H339    1.125   .     S
C131   H340    1.091   .     S
C131   H341    1.125   .     S
C132   H342    1.164   .     S
C132   H343    1.133   .     S
C132   H344    1.113   .     S
C133   H345    1.135   .     S
C133   H346    1.109   .     S
C133   H347    1.100   .     S
C134   H348    1.136   .     S
C134   H349    1.060   .     S
C134   H350    1.085   .     S
C135   H351    1.133   .     S
C135   H352    1.071   .     S
C135   H353    1.126   .     S
C136   H354    1.103   .     S
C136   H355    1.143   .     S
C136   H356    1.092   .     S
C136   Si34    1.933   1_565 S
C137   H357    1.099   .     S
C137   H358    1.115   .     S
C137   H359    1.094   .     S
C138   H360    1.142   .     S
C138   H361    1.133   .     S
C138   H362    1.123   .     S
C139   H363    1.141   .     S
C139   H364    1.092   .     S
C139   H365    1.115   .     S
C140   H366    1.111   .     S
C140   H367    1.139   .     S
C140   H368    1.064   .     S
O141   Si2     1.579   1_655 S
C144   H369    1.111   .     S
C144   H370    1.097   .     S
C144   H371    1.146   .     S
C145   H372    1.138   .     S
C145   H373    1.180   .     S
C145   H374    1.121   .     S
C146   H375    1.137   .     S
C146   H376    1.145   .     S
C146   H377    1.087   .     S
C146   Si4     1.836   1_655 S
C147   H378    1.150   .     S
C147   H379    1.116   .     S
C147   H380    1.115   .     S
C147   Si37    1.784   1_565 S
C148   H381    1.155   .     S
C148   H382    1.106   .     S
C148   H383    1.122   .     S
C149   H384    1.130   .     S
C149   H385    1.072   .     S
C149   H386    1.111   .     S
C150   H387    1.118   .     S
C150   H388    1.153   .     S
C150   H389    1.156   .     S
O151   Si17    1.615   1_556 S
C152   H390    1.080   .     S
C152   H391    1.070   .     S
C152   H392    1.134   .     S
C154   H393    1.113   .     S
C154   H394    1.109   .     S
C154   H395    1.080   .     S
C155   H396    1.110   .     S
C155   H397    1.114   .     S
C155   H398    1.132   .     S
C156   H399    1.083   .     S
C156   H400    1.055   .     S
C156   H401    1.112   .     S
C158   H402    1.115   .     S
C158   H403    1.088   .     S
C158   H404    1.182   .     S
C159   H405    1.095   .     S
C159   H406    1.122   .     S
C159   H407    1.101   .     S
C160   H408    1.152   .     S
C160   H409    1.135   .     S
C160   H410    1.089   .     S
C162   H411    1.104   .     S
C162   H412    1.080   .     S
C162   H413    1.068   .     S
C165   H414    1.097   .     S
C165   H415    1.107   .     S
C165   H416    1.070   .     S
C166   H417    1.050   .     S
C166   H418    1.189   .     S
C166   H419    1.121   .     S
C167   H420    1.106   .     S
C167   H421    1.129   .     S
C167   H422    1.082   .     S
C168   H423    1.137   .     S
C168   H424    1.083   .     S
C168   H425    1.098   .     S
C170   H426    1.113   .     S
C170   H427    1.103   .     S
C170   H428    1.081   .     S
C171   H429    1.104   .     S
C171   H430    1.068   .     S
C171   H431    1.092   .     S
O172   Si8     1.632   1_655 S
C174   H432    1.175   .     S
C174   H433    1.070   .     S
C174   H434    1.065   .     S
C175   H435    1.089   .     S
C175   H436    1.122   .     S
C175   H437    1.059   .     S
C176   H438    1.077   .     S
C176   H439    1.092   .     S
C176   H440    1.144   .     S
C177   H441    1.100   .     S
C177   H442    1.099   .     S
C177   H443    1.102   .     S
C178   H444    1.099   .     S
C178   H445    1.118   .     S
C178   H446    1.103   .     S
O179   Si12    1.595   1_655 S
C181   H447    1.103   .     S
C181   H448    1.121   .     S
C181   H449    1.057   .     S
C182   H450    1.097   .     S
C182   H451    1.177   .     S
C182   H452    1.086   .     S
O185   Si14    1.590   1_655 S
O186   Si12    1.560   1_655 S
O189   Si34    1.643   1_565 S
C192   H453    1.125   .     S
C192   H454    1.101   .     S
C192   H455    1.080   .     S
C193   H456    1.105   .     S
C193   H457    1.083   .     S
C193   H458    1.085   .     S
C195   H459    1.087   .     S
C195   H460    1.073   .     S
C195   H461    1.100   .     S
O196   Si37    1.651   1_565 S
O197   Si29    1.591   1_556 S
