data_333-7-11-18-15-30-18
_audit_creation_date              2025-03-07
_audit_creation_method            'Materials Studio'
_symmetry_space_group_name_H-M    'P1'
_symmetry_Int_Tables_number       1
_symmetry_cell_setting            triclinic
loop_
_symmetry_equiv_pos_as_xyz
  x,y,z
_cell_length_a                    18.1968
_cell_length_b                    18.0951
_cell_length_c                    18.9002
_cell_angle_alpha                 95.4402
_cell_angle_beta                  84.5154
_cell_angle_gamma                 125.9894
loop_
_atom_site_label
_atom_site_type_symbol
_atom_site_fract_x
_atom_site_fract_y
_atom_site_fract_z
_atom_site_U_iso_or_equiv
_atom_site_adp_type
_atom_site_occupancy
Si1    Si    0.15669  -0.00226   0.10594   0.00000  Uiso   1.00
Si2    Si   -0.01262   0.17736   0.20551   0.00000  Uiso   1.00
Si3    Si    0.12168   0.05769  -0.02982   0.00000  Uiso   1.00
Si4    Si   -0.04101   0.20526   0.49265   0.00000  Uiso   1.00
Si5    Si    0.11542   0.17955   0.29723   0.00000  Uiso   1.00
Si6    Si    0.04889  -0.04569   0.82734   0.00000  Uiso   1.00
Si7    Si    0.06920   0.22275   0.61256   0.00000  Uiso   1.00
Si8    Si    0.14762   0.33687   0.12034   0.00000  Uiso   1.00
Si9    Si    0.01491   0.51219   0.21885   0.00000  Uiso   1.00
Si10   Si    0.10844   0.33391   0.37630   0.00000  Uiso   1.00
Si11   Si    0.23963   0.73346   0.58341   0.00000  Uiso   1.00
Si12   Si    0.13541   0.50271   0.32087   0.00000  Uiso   1.00
Si13   Si    0.24341   0.64194   0.71086   0.00000  Uiso   1.00
Si14   Si    0.16250   0.68715   0.13734   0.00000  Uiso   1.00
Si15   Si   -0.03717   0.87036   0.14709   0.00000  Uiso   1.00
Si16   Si    0.16847   0.83571   0.05664   0.00000  Uiso   1.00
Si17   Si    0.24691   0.65935   0.43147   0.00000  Uiso   1.00
Si18   Si   -0.05609   0.87695   0.52682   0.00000  Uiso   1.00
Si19   Si    0.20125   0.78258   0.37301   0.00000  Uiso   1.00
Si20   Si    0.18877   0.69069   0.85415   0.00000  Uiso   1.00
Si21   Si    0.45037  -0.00773   0.16504   0.00000  Uiso   1.00
Si22   Si    0.25229   0.13064   0.23785   0.00000  Uiso   1.00
Si23   Si    0.49081   0.15743   0.08909   0.00000  Uiso   1.00
Si24   Si    0.42226  -0.06153   0.81877   0.00000  Uiso   1.00
Si25   Si    0.44104   0.19157   0.95734   0.00000  Uiso   1.00
Si26   Si    0.46066   0.26952   0.20709   0.00000  Uiso   1.00
Si27   Si    0.27742   0.51903   0.20350   0.00000  Uiso   1.00
Si28   Si    0.34889   0.19437   0.48292   0.00000  Uiso   1.00
Si29   Si    0.58280   0.33355   0.85393   0.00000  Uiso   1.00
Si30   Si    0.32336   0.51382   0.88234   0.00000  Uiso   1.00
Si31   Si    0.42018   0.40719   0.67974   0.00000  Uiso   1.00
Si32   Si    0.61035   0.84837  -0.00615   0.00000  Uiso   1.00
Si33   Si    0.30889   0.82815   0.23554   0.00000  Uiso   1.00
Si34   Si    0.49240   0.91305   0.03416   0.00000  Uiso   1.00
Si35   Si    0.43206   0.69654   0.44122   0.00000  Uiso   1.00
Si36   Si    0.48564   0.56893   0.77842   0.00000  Uiso   1.00
Si37   Si    0.31943   0.84617   0.95709   0.00000  Uiso   1.00
Si38   Si    0.59210   0.05715   0.27137   0.00000  Uiso   1.00
Si39   Si    0.77273   0.03975   0.47542   0.00000  Uiso   1.00
Si40   Si    0.92755   0.45940   0.53383   0.00000  Uiso   1.00
Si41   Si    0.87032  -0.06558   0.82812   0.00000  Uiso   1.00
Si42   Si    0.68813   0.29013   1.04384   0.00000  Uiso   1.00
Si43   Si    0.87677   0.28844   0.60082   0.00000  Uiso   1.00
Si44   Si    0.64473   0.38765   0.28921   0.00000  Uiso   1.00
Si45   Si    1.03582   0.65362   0.60430   0.00000  Uiso   1.00
Si46   Si    0.46307   0.27767   0.61569   0.00000  Uiso   1.00
Si47   Si    0.84165   0.50698   0.22599   0.00000  Uiso   1.00
Si48   Si    0.87540   0.28457   0.75933   0.00000  Uiso   1.00
Si49   Si    0.75783   0.52461   0.88630   0.00000  Uiso   1.00
Si50   Si    0.79642   0.82739   0.23508   0.00000  Uiso   1.00
Si51   Si    0.75439   0.69859   0.56193   0.00000  Uiso   1.00
C52    C     0.90495   0.17709   0.27284   0.00000  Uiso   1.00
C53    C     0.91892   0.09908   0.13085   0.00000  Uiso   1.00
O54    O     0.16315   0.03367   0.02747   0.00000  Uiso   1.00
O55    O     0.03514   0.13830   0.24124   0.00000  Uiso   1.00
C56    C     0.05622   0.09938   0.37306   0.00000  Uiso   1.00
O57    O     0.08441  -0.01742   0.90648   0.00000  Uiso   1.00
C58    C    -0.00695  -0.17172   0.80604   0.00000  Uiso   1.00
C59    C     1.15670   0.02177   0.76556   0.00000  Uiso   1.00
O60    O     0.02767   0.20480   0.53908   0.00000  Uiso   1.00
C61    C    -0.02412   0.14408   0.67803   0.00000  Uiso   1.00
C62    C     0.13041   0.34689   0.64212   0.00000  Uiso   1.00
C63    C     0.15049   0.19212   0.60311   0.00000  Uiso   1.00
O64    O     0.06148   0.27836   0.17462   0.00000  Uiso   1.00
C65    C     0.02793   0.06460   0.00840   0.00000  Uiso   1.00
C66    C     0.21882   0.28977   0.11475   0.00000  Uiso   1.00
C67    C     0.11018   0.33008   0.03189   0.00000  Uiso   1.00
C68    C     1.00570   0.43220   0.14553   0.00000  Uiso   1.00
O69    O     0.01421   0.26017   0.42146   0.00000  Uiso   1.00
O70    O     0.13998   0.27867   0.32545   0.00000  Uiso   1.00
C71    C     0.19570   0.40993   0.44287   0.00000  Uiso   1.00
C72    C     1.32683   0.85066   0.55770   0.00000  Uiso   1.00
O73    O     0.05805   0.50245   0.28640   0.00000  Uiso   1.00
O74    O     0.09794   0.40080   0.33433   0.00000  Uiso   1.00
O75    O     0.26663   0.70856   0.64866   0.00000  Uiso   1.00
C76    C     0.13203   0.53560   0.69817   0.00000  Uiso   1.00
C77    C     0.32526   0.61161   0.69880   0.00000  Uiso   1.00
O78    O     0.07949   0.61662   0.19096   0.00000  Uiso   1.00
C79    C     0.17886   0.62509   0.06404   0.00000  Uiso   1.00
O80    O     0.05928   0.95644   0.14223   0.00000  Uiso   1.00
C81    C     0.91512   0.81307   0.05811   0.00000  Uiso   1.00
O82    O     0.14617   0.75865   0.11089   0.00000  Uiso   1.00
O83    O     0.17710   0.92269   0.10010   0.00000  Uiso   1.00
C84    C     0.07264   0.77113   1.00003   0.00000  Uiso   1.00
O85    O     0.22535   0.66436   0.51621   0.00000  Uiso   1.00
O86    O     0.16987   0.56125   0.39642   0.00000  Uiso   1.00
C87    C     0.03102   0.93417   0.59580   0.00000  Uiso   1.00
C88    C    -0.10284   0.94052   0.51813   0.00000  Uiso   1.00
C89    C     0.99979   0.87205   0.44373   0.00000  Uiso   1.00
C90    C    -0.01842   0.80226   0.19964   0.00000  Uiso   1.00
C91    C     0.07284   0.70318   0.37086   0.00000  Uiso   1.00
O92    O     0.24830   0.73306   0.39034   0.00000  Uiso   1.00
C93    C     0.23650   0.88206   0.42932   0.00000  Uiso   1.00
C94    C     0.08969   0.57323   0.87876   0.00000  Uiso   1.00
O95    O     0.24744   0.68569   0.78969   0.00000  Uiso   1.00
C96    C     0.14761   0.75503   0.82468   0.00000  Uiso   1.00
O97    O     0.22834   0.08427   0.15896   0.00000  Uiso   1.00
C98    C     0.21554   0.04067   0.30084   0.00000  Uiso   1.00
O99    O     0.20639   0.18582   0.26082   0.00000  Uiso   1.00
O100   O     0.44138   0.06022   0.12311   0.00000  Uiso   1.00
C101   C     0.34425  -0.08060   0.75023   0.00000  Uiso   1.00
C102   C     0.45667   0.86005   0.79644   0.00000  Uiso   1.00
C103   C     0.34386   0.09725   0.90358   0.00000  Uiso   1.00
O104   O     0.45721   0.14644   1.01458   0.00000  Uiso   1.00
C105   C     0.40741   0.26257   1.00795   0.00000  Uiso   1.00
C106   C     0.20605   0.17748   0.93633   0.00000  Uiso   1.00
O107   O     0.36437   0.20135   0.24564   0.00000  Uiso   1.00
O108   O     0.45973   0.21453   0.13478   0.00000  Uiso   1.00
C109   C     0.46357   0.36974   0.18698   0.00000  Uiso   1.00
O110   O     0.20594   0.44253   0.14967   0.00000  Uiso   1.00
C111   C     0.33661   0.47926   0.24142   0.00000  Uiso   1.00
O112   O     0.22633   0.54329   0.26517   0.00000  Uiso   1.00
C113   C     0.25684   0.08806   0.52193   0.00000  Uiso   1.00
C114   C     0.41099   0.16811   0.41321   0.00000  Uiso   1.00
C115   C     0.29825   0.24217   0.43757   0.00000  Uiso   1.00
O116   O     0.52875   0.25262   0.90824   0.00000  Uiso   1.00
C117   C     0.63173   0.29880   0.78160   0.00000  Uiso   1.00
C118   C     0.20016   0.44607   0.85920   0.00000  Uiso   1.00
C119   C     0.34092   0.45448   0.94549   0.00000  Uiso   1.00
C120   C     0.34833   0.62393   0.92939   0.00000  Uiso   1.00
C121   C     0.40701   0.44162   0.59597   0.00000  Uiso   1.00
C122   C     0.50327   0.35737   0.82906   0.00000  Uiso   1.00
C123   C     0.31214   0.33474   0.73487   0.00000  Uiso   1.00
C124   C     0.36245   0.62075   0.14928   0.00000  Uiso   1.00
C125   C     0.59192   0.74425   0.02823   0.00000  Uiso   1.00
C126   C     0.61418   0.84954  -0.10467   0.00000  Uiso   1.00
C127   C     0.71811   0.95581   0.02623   0.00000  Uiso   1.00
O128   O     0.25375   0.74924   0.17817   0.00000  Uiso   1.00
C129   C     0.39022   0.80829   0.26456   0.00000  Uiso   1.00
O130   O     0.36007   0.92517   0.20312   0.00000  Uiso   1.00
O131   O     0.23817   0.81597   0.29790   0.00000  Uiso   1.00
O132   O     0.52875   0.85288   0.02590   0.00000  Uiso   1.00
O133   O     0.48144   0.93894   0.11358   0.00000  Uiso   1.00
C134   C     0.56478   1.02176   0.98358   0.00000  Uiso   1.00
O135   O     0.34070   0.67404   0.41635   0.00000  Uiso   1.00
C136   C     0.40794   0.59379   0.48619   0.00000  Uiso   1.00
C137   C     0.51546   0.72694   0.36647   0.00000  Uiso   1.00
C138   C     0.47840   0.79936   0.50454   0.00000  Uiso   1.00
O139   O     0.38602   0.52428   0.81347   0.00000  Uiso   1.00
O140   O     0.48416   0.49770   0.72340   0.00000  Uiso   1.00
C141   C     0.53128   0.67593   0.72918   0.00000  Uiso   1.00
C142   C     0.56237   0.60275   0.84701   0.00000  Uiso   1.00
O143   O     0.25200   0.74573   0.91721   0.00000  Uiso   1.00
O144   O     0.38793   0.84928   1.00780   0.00000  Uiso   1.00
O145   O     0.37519   0.91976   0.89412   0.00000  Uiso   1.00
O146   O     0.25710   0.87023   1.00933   0.00000  Uiso   1.00
O147   O     0.52171   0.04822   0.22148   0.00000  Uiso   1.00
C148   C     0.61668  -0.02805   0.24102   0.00000  Uiso   1.00
C149   C     0.70043   0.16886   0.26116   0.00000  Uiso   1.00
C150   C     0.54491   0.03967   0.36504   0.00000  Uiso   1.00
C151   C     0.73104   0.10423   0.44529   0.00000  Uiso   1.00
O152   O     0.87852   0.10665   0.47326   0.00000  Uiso   1.00
C153   C     0.72241   0.99693   0.56853   0.00000  Uiso   1.00
C154   C     0.96045   0.43446   0.44701   0.00000  Uiso   1.00
C155   C     0.81068   0.44356   0.53111   0.00000  Uiso   1.00
O156   O     0.97609  -0.02274   0.82079   0.00000  Uiso   1.00
C157   C     0.81284   0.82175   0.87585   0.00000  Uiso   1.00
C158   C     0.53082   0.05478   0.80889   0.00000  Uiso   1.00
C159   C     0.78137   0.30548   1.08644   0.00000  Uiso   1.00
C160   C     0.68888   0.39371   1.04857   0.00000  Uiso   1.00
O161   O     0.59580   0.21135   1.08765   0.00000  Uiso   1.00
O162   O     0.91869   0.25829   0.53780   0.00000  Uiso   1.00
O163   O     0.91538   0.39067   0.59075   0.00000  Uiso   1.00
C164   C     0.86015   0.02142   0.87350   0.00000  Uiso   1.00
C165   C     0.74646   0.22100   0.60075   0.00000  Uiso   1.00
O166   O     0.55077   0.30354   0.25496   0.00000  Uiso   1.00
C167   C     0.62964   0.48233   0.32267   0.00000  Uiso   1.00
C168   C     0.66320   0.34581   0.36552   0.00000  Uiso   1.00
O169   O     1.00617   0.56328   0.55722   0.00000  Uiso   1.00
C170   C     0.99791   0.71115   0.56247   0.00000  Uiso   1.00
O171   O     1.14542   0.72377   0.60450   0.00000  Uiso   1.00
O172   O     0.41096   0.25893   0.54515   0.00000  Uiso   1.00
C173   C     0.40613   0.17116   0.66657   0.00000  Uiso   1.00
C174   C     0.58160   0.31582   0.58148   0.00000  Uiso   1.00
O175   O     0.46538   0.35496   0.66264   0.00000  Uiso   1.00
O176   O     0.91184   0.48297   0.23729   0.00000  Uiso   1.00
O177   O     0.73527   0.42442   0.23868   0.00000  Uiso   1.00
C178   C     0.98053   0.61937   0.69505   0.00000  Uiso   1.00
C179   C     0.87062   0.60218   0.29040   0.00000  Uiso   1.00
C180   C     0.87448   0.55551   0.13830   0.00000  Uiso   1.00
C181   C     0.69392   0.24624   0.95217   0.00000  Uiso   1.00
C182   C     0.77637   0.16937   0.78676   0.00000  Uiso   1.00
O183   O     0.90005   0.27792   0.67665   0.00000  Uiso   1.00
C184   C     0.85588   0.37589   0.76944   0.00000  Uiso   1.00
C185   C     0.97284   0.31576   0.81420   0.00000  Uiso   1.00
O186   O     0.67059   0.42342   0.89071   0.00000  Uiso   1.00
C187   C     0.86310   0.53305   0.90479   0.00000  Uiso   1.00
C188   C     0.76599   0.56827   0.79914   0.00000  Uiso   1.00
C189   C     0.73434   0.58726   0.96172   0.00000  Uiso   1.00
O190   O     0.89472   0.88332   0.19768   0.00000  Uiso   1.00
C191   C     0.72186   0.71152   0.19458   0.00000  Uiso   1.00
C192   C     0.78672   0.80426   0.32933   0.00000  Uiso   1.00
C193   C     0.74840   0.89313   0.22782   0.00000  Uiso   1.00
C194   C     0.74064   0.94464   0.41013   0.00000  Uiso   1.00
O195   O     0.85945   0.77697   0.55450   0.00000  Uiso   1.00
C196   C     0.70994   0.61061   0.48270   0.00000  Uiso   1.00
C197   C     0.73813   0.64079   0.64573   0.00000  Uiso   1.00
C198   C     0.69193   0.74962   0.57008   0.00000  Uiso   1.00
C199   C     0.82346   0.90696   0.73720   0.00000  Uiso   1.00
H200   H     0.83525   0.12856   0.25678   0.00000  Uiso   1.00
H201   H     0.92651   0.24886   0.27776   0.00000  Uiso   1.00
H202   H     0.91697   0.15267   0.32177   0.00000  Uiso   1.00
H203   H     0.95851   0.14032   0.08355   0.00000  Uiso   1.00
H204   H     0.85298   0.08468   0.13263   0.00000  Uiso   1.00
H205   H     0.90831   0.02999   0.13170   0.00000  Uiso   1.00
H206   H    -0.02201   0.06390   0.37723   0.00000  Uiso   1.00
H207   H     0.09136   0.14182   0.42229   0.00000  Uiso   1.00
H208   H     0.05671   0.03690   0.36672   0.00000  Uiso   1.00
H209   H    -0.04395  -0.21135   0.85169   0.00000  Uiso   1.00
H210   H     0.04102  -0.18232   0.78144   0.00000  Uiso   1.00
H211   H    -0.05751  -0.19710   0.76206   0.00000  Uiso   1.00
H212   H     1.13821  -0.00323   0.71293   0.00000  Uiso   1.00
H213   H     1.20886   0.01511   0.78471   0.00000  Uiso   1.00
H214   H     1.18452   0.09530   0.76544   0.00000  Uiso   1.00
H215   H    -0.04338   0.07276   0.65919   0.00000  Uiso   1.00
H216   H    -0.08204   0.15259   0.67985   0.00000  Uiso   1.00
H217   H     0.00079   0.15700   0.73154   0.00000  Uiso   1.00
H218   H     0.08473   0.36667   0.63586   0.00000  Uiso   1.00
H219   H     0.20250   0.39509   0.61925   0.00000  Uiso   1.00
H220   H     0.13669   0.35681   0.70036   0.00000  Uiso   1.00
H221   H     0.21786   0.25991   0.61223   0.00000  Uiso   1.00
H222   H     0.14680   0.15624   0.54963   0.00000  Uiso   1.00
H223   H     0.13461   0.14752   0.64901   0.00000  Uiso   1.00
H224   H     0.05287   0.11034   0.05797   0.00000  Uiso   1.00
H225   H    -0.03799  -0.00614   0.01735   0.00000  Uiso   1.00
H226   H     0.01692   0.09689  -0.03281   0.00000  Uiso   1.00
H227   H     0.28401   0.32850   0.08205   0.00000  Uiso   1.00
H228   H     0.17349   0.21258   0.10758   0.00000  Uiso   1.00
H229   H     0.24129   0.29948   0.16675   0.00000  Uiso   1.00
H230   H     0.03519   0.28104   0.03626   0.00000  Uiso   1.00
H231   H     0.14101   0.30782  -0.00785   0.00000  Uiso   1.00
H232   H     0.12839   0.39740   0.01565   0.00000  Uiso   1.00
H233   H     1.06746   0.44064   0.13601   0.00000  Uiso   1.00
H234   H     0.98724   0.44609   0.09676   0.00000  Uiso   1.00
H235   H     0.95214   0.36006   0.15815   0.00000  Uiso   1.00
H236   H     0.20245   0.36995   0.48474   0.00000  Uiso   1.00
H237   H     0.16415   0.44013   0.47395   0.00000  Uiso   1.00
H238   H     0.26323   0.46271   0.41849   0.00000  Uiso   1.00
H239   H     1.30466   0.89462   0.57497   0.00000  Uiso   1.00
H240   H     1.35213   0.86107   0.50079   0.00000  Uiso   1.00
H241   H     1.38581   0.87934   0.58830   0.00000  Uiso   1.00
H242   H     0.13895   0.52106   0.63995   0.00000  Uiso   1.00
H243   H     0.07728   0.54498   0.70919   0.00000  Uiso   1.00
H244   H     0.12012   0.48356   0.73115   0.00000  Uiso   1.00
H245   H     0.29072   0.54572   0.73097   0.00000  Uiso   1.00
H246   H     0.39222   0.66851   0.71570   0.00000  Uiso   1.00
H247   H     0.32990   0.59600   0.64173   0.00000  Uiso   1.00
H248   H     0.23856   0.67010   0.03150   0.00000  Uiso   1.00
H249   H     0.11812   0.57951   0.03022   0.00000  Uiso   1.00
H250   H     0.18524   0.57752   0.09442   0.00000  Uiso   1.00
H251   H     0.87195   0.73917   0.05997   0.00000  Uiso   1.00
H252   H     0.97096   0.82803   0.01648   0.00000  Uiso   1.00
H253   H     0.87287   0.82935   0.04014   0.00000  Uiso   1.00
H254   H     0.06841   0.71121   0.97713   0.00000  Uiso   1.00
H255   H     0.08119   0.81412   0.95427   0.00000  Uiso   1.00
H256   H     0.00771   0.74010   1.03016   0.00000  Uiso   1.00
H257   H     0.00950   0.89810   0.64369   0.00000  Uiso   1.00
H258   H     0.05058   1.00386   0.60795   0.00000  Uiso   1.00
H259   H     0.09502   0.94726   0.57714   0.00000  Uiso   1.00
H260   H    -0.14631   0.91649   0.47304   0.00000  Uiso   1.00
H261   H    -0.04321   1.01045   0.50993   0.00000  Uiso   1.00
H262   H    -0.14289   0.94105   0.56564   0.00000  Uiso   1.00
H263   H     0.95678   0.83404   0.39908   0.00000  Uiso   1.00
H264   H     1.04220   0.84635   0.44568   0.00000  Uiso   1.00
H265   H     1.04143   0.93923   0.42773   0.00000  Uiso   1.00
H266   H    -0.08412   0.73623   0.20366   0.00000  Uiso   1.00
H267   H     0.00858   0.82846   0.25481   0.00000  Uiso   1.00
H268   H     0.03451   0.79545   0.17118   0.00000  Uiso   1.00
H269   H     0.04827   0.74562   0.36872   0.00000  Uiso   1.00
H270   H     0.04519   0.66500   0.42161   0.00000  Uiso   1.00
H271   H     0.05673   0.65760   0.32244   0.00000  Uiso   1.00
H272   H     0.21302   0.85614   0.48227   0.00000  Uiso   1.00
H273   H     0.21509   0.92362   0.41483   0.00000  Uiso   1.00
H274   H     0.31141   0.92802   0.42865   0.00000  Uiso   1.00
H275   H     0.05993   0.58397   0.92614   0.00000  Uiso   1.00
H276   H     0.11942   0.53385   0.88905   0.00000  Uiso   1.00
H277   H     0.03907   0.53902   0.83740   0.00000  Uiso   1.00
H278   H     0.07595   0.72847   0.83655   0.00000  Uiso   1.00
H279   H     0.15145   0.76076   0.76714   0.00000  Uiso   1.00
H280   H     0.19086   0.82496   0.84483   0.00000  Uiso   1.00
H281   H     0.23177   0.06622   0.35759   0.00000  Uiso   1.00
H282   H     0.25246   0.01232   0.27877   0.00000  Uiso   1.00
H283   H     0.14316  -0.01270   0.29452   0.00000  Uiso   1.00
H284   H     0.30107  -0.15033   0.72989   0.00000  Uiso   1.00
H285   H     0.38238  -0.03697   0.70519   0.00000  Uiso   1.00
H286   H     0.30049  -0.06131   0.77271   0.00000  Uiso   1.00
H287   H     0.43343   0.83142   0.74139   0.00000  Uiso   1.00
H288   H     0.41893   0.80081   0.83610   0.00000  Uiso   1.00
H289   H     0.53191   0.89943   0.79084   0.00000  Uiso   1.00
H290   H     0.28510   0.05655   0.94187   0.00000  Uiso   1.00
H291   H     0.35813   0.05333   0.87338   0.00000  Uiso   1.00
H292   H     0.33097   0.12538   0.86253   0.00000  Uiso   1.00
H293   H     0.35424   0.21939   1.05040   0.00000  Uiso   1.00
H294   H     0.38430   0.29218   0.97554   0.00000  Uiso   1.00
H295   H     0.46978   0.31953   1.03521   0.00000  Uiso   1.00
H296   H     0.25649   0.18214   0.90154   0.00000  Uiso   1.00
H297   H     0.23629   0.23341   0.97927   0.00000  Uiso   1.00
H298   H     0.17156   0.19812   0.90796   0.00000  Uiso   1.00
H299   H     0.39620   0.34183   0.16625   0.00000  Uiso   1.00
H300   H     0.51773   0.40884   0.14373   0.00000  Uiso   1.00
H301   H     0.48047   0.41489   0.23397   0.00000  Uiso   1.00
H302   H     0.29112   0.41074   0.25654   0.00000  Uiso   1.00
H303   H     0.37434   0.52025   0.28898   0.00000  Uiso   1.00
H304   H     0.38728   0.48536   0.19738   0.00000  Uiso   1.00
H305   H     0.23432   0.09855   0.57595   0.00000  Uiso   1.00
H306   H     0.28140   0.04564   0.52338   0.00000  Uiso   1.00
H307   H     0.19144   0.04269   0.49043   0.00000  Uiso   1.00
H308   H     0.46283   0.17318   0.44151   0.00000  Uiso   1.00
H309   H     0.43903   0.22225   0.37590   0.00000  Uiso   1.00
H310   H     0.36164   0.09727   0.39033   0.00000  Uiso   1.00
H311   H     0.25185   0.19644   0.39720   0.00000  Uiso   1.00
H312   H     0.35704   0.30625   0.40684   0.00000  Uiso   1.00
H313   H     0.27356   0.26898   0.48040   0.00000  Uiso   1.00
H314   H     0.57947   0.23067   0.75568   0.00000  Uiso   1.00
H315   H     0.67105   0.28372   0.81117   0.00000  Uiso   1.00
H316   H     0.67157   0.35697   0.74547   0.00000  Uiso   1.00
H317   H     0.15784   0.44233   0.90806   0.00000  Uiso   1.00
H318   H     0.17902   0.37960   0.84188   0.00000  Uiso   1.00
H319   H     0.18580   0.47237   0.81509   0.00000  Uiso   1.00
H320   H     0.29070   0.43728   0.98966   0.00000  Uiso   1.00
H321   H     0.40542   0.50377   0.96634   0.00000  Uiso   1.00
H322   H     0.32543   0.39245   0.91426   0.00000  Uiso   1.00
H323   H     0.29966   0.59789   0.98168   0.00000  Uiso   1.00
H324   H     0.33557   0.66173   0.89723   0.00000  Uiso   1.00
H325   H     0.41850   0.67012   0.94497   0.00000  Uiso   1.00
H326   H     0.34752   0.37726   0.57172   0.00000  Uiso   1.00
H327   H     0.47459   0.47645   0.56827   0.00000  Uiso   1.00
H328   H     0.38928   0.49236   0.60526   0.00000  Uiso   1.00
H329   H     0.45486   0.29920   0.79606   0.00000  Uiso   1.00
H330   H     0.54519   0.41254   0.79101   0.00000  Uiso   1.00
H331   H     0.47086   0.37209   0.87459   0.00000  Uiso   1.00
H332   H     0.27146   0.25558   0.72728   0.00000  Uiso   1.00
H333   H     0.27146   0.35894   0.73183   0.00000  Uiso   1.00
H334   H     0.33379   0.35135   0.79067   0.00000  Uiso   1.00
H335   H     0.34722   0.66785   0.15042   0.00000  Uiso   1.00
H336   H     0.35246   0.58993   0.09319   0.00000  Uiso   1.00
H337   H     0.43750   0.65643   0.16463   0.00000  Uiso   1.00
H338   H     0.63345   0.72194  -0.00222   0.00000  Uiso   1.00
H339   H     0.51683   0.68419   0.02196   0.00000  Uiso   1.00
H340   H     0.61232   0.76025   0.08673   0.00000  Uiso   1.00
H341   H     0.53926   0.80428  -0.12062   0.00000  Uiso   1.00
H342   H     0.65185   0.82292  -0.12806   0.00000  Uiso   1.00
H343   H     0.63540   0.91590  -0.11640   0.00000  Uiso   1.00
H344   H     0.69856   0.97343   0.07811   0.00000  Uiso   1.00
H345   H     0.74636   1.01078  -0.00868   0.00000  Uiso   1.00
H346   H     0.77644   0.94955   0.03038   0.00000  Uiso   1.00
H347   H     0.43221   0.81652   0.21818   0.00000  Uiso   1.00
H348   H     0.35815   0.74060   0.28334   0.00000  Uiso   1.00
H349   H     0.42811   0.86210   0.30636   0.00000  Uiso   1.00
H350   H     0.58350   1.00554   0.93001   0.00000  Uiso   1.00
H351   H     0.62622   1.07411   1.00845   0.00000  Uiso   1.00
H352   H     0.53100   1.05477   0.98417   0.00000  Uiso   1.00
H353   H     0.40788   0.55155   0.44026   0.00000  Uiso   1.00
H354   H     0.33953   0.55316   0.51404   0.00000  Uiso   1.00
H355   H     0.45723   0.60923   0.52449   0.00000  Uiso   1.00
H356   H     0.51394   0.77287   0.33281   0.00000  Uiso   1.00
H357   H     0.50992   0.66906   0.33251   0.00000  Uiso   1.00
H358   H     0.58362   0.77410   0.38599   0.00000  Uiso   1.00
H359   H     0.54082   0.81358   0.52669   0.00000  Uiso   1.00
H360   H     0.42451   0.78241   0.54966   0.00000  Uiso   1.00
H361   H     0.48791   0.85679   0.47483   0.00000  Uiso   1.00
H362   H     0.52066   0.72015   0.76107   0.00000  Uiso   1.00
H363   H     0.49520   0.65376   0.67902   0.00000  Uiso   1.00
H364   H     0.60502   0.71781   0.71689   0.00000  Uiso   1.00
H365   H     0.56303   0.65891   0.88236   0.00000  Uiso   1.00
H366   H     0.62526   0.62590   0.82231   0.00000  Uiso   1.00
H367   H     0.53253   0.53991   0.87815   0.00000  Uiso   1.00
H368   H     0.57632  -0.09203   0.27211   0.00000  Uiso   1.00
H369   H     0.69034   0.00265   0.25182   0.00000  Uiso   1.00
H370   H     0.59921  -0.05771   0.18492   0.00000  Uiso   1.00
H371   H     0.74150   0.20309   0.31165   0.00000  Uiso   1.00
H372   H     0.68194   0.21289   0.24061   0.00000  Uiso   1.00
H373   H     0.74741   0.16572   0.22067   0.00000  Uiso   1.00
H374   H     0.59246   0.10187   0.39685   0.00000  Uiso   1.00
H375   H     0.53525  -0.02166   0.38509   0.00000  Uiso   1.00
H376   H     0.47822   0.02771   0.37072   0.00000  Uiso   1.00
H377   H     0.78899   0.17801   0.44953   0.00000  Uiso   1.00
H378   H     0.67580   0.08987   0.47881   0.00000  Uiso   1.00
H379   H     0.72664   0.10014   0.38751   0.00000  Uiso   1.00
H380   H     0.65455   0.98547   0.57413   0.00000  Uiso   1.00
H381   H     0.76338   1.04849   0.61043   0.00000  Uiso   1.00
H382   H     0.72414   0.93518   0.57205   0.00000  Uiso   1.00
H383   H     0.98156   0.49042   0.41110   0.00000  Uiso   1.00
H384   H     0.89308   0.37315   0.43242   0.00000  Uiso   1.00
H385   H     1.00281   0.41030   0.45259   0.00000  Uiso   1.00
H386   H     0.82638   0.50618   0.50995   0.00000  Uiso   1.00
H387   H     0.78639   0.44238   0.58633   0.00000  Uiso   1.00
H388   H     0.76691   0.37993   0.49694   0.00000  Uiso   1.00
H389   H     0.74881   0.79764   0.90446   0.00000  Uiso   1.00
H390   H     0.85501   0.83360   0.91755   0.00000  Uiso   1.00
H391   H     0.80054   0.76577   0.83122   0.00000  Uiso   1.00
H392   H     0.53605   0.11126   0.84456   0.00000  Uiso   1.00
H393   H     0.54079   0.07456   0.75462   0.00000  Uiso   1.00
H394   H     0.58816   0.05406   0.82147   0.00000  Uiso   1.00
H395   H     0.78976   0.32840   1.14554   0.00000  Uiso   1.00
H396   H     0.84310   0.35464   1.05351   0.00000  Uiso   1.00
H397   H     0.77828   0.24500   1.07356   0.00000  Uiso   1.00
H398   H     0.74697   0.44269   1.01768   0.00000  Uiso   1.00
H399   H     0.69983   0.41472   1.10763   0.00000  Uiso   1.00
H400   H     0.61930   0.36953   1.03482   0.00000  Uiso   1.00
H401   H     0.87189   0.02540   0.93058   0.00000  Uiso   1.00
H402   H     0.79464   0.00853   0.86950   0.00000  Uiso   1.00
H403   H     0.90676   0.08208   0.84424   0.00000  Uiso   1.00
H404   H     0.71753   0.24162   0.64394   0.00000  Uiso   1.00
H405   H     0.71642   0.14688   0.60430   0.00000  Uiso   1.00
H406   H     0.71992   0.23088   0.55053   0.00000  Uiso   1.00
H407   H     0.56686   0.46629   0.35488   0.00000  Uiso   1.00
H408   H     0.62913   0.51067   0.27531   0.00000  Uiso   1.00
H409   H     0.68932   0.53478   0.35399   0.00000  Uiso   1.00
H410   H     0.67785   0.29561   0.34819   0.00000  Uiso   1.00
H411   H     0.60559   0.31687   0.40507   0.00000  Uiso   1.00
H412   H     0.72590   0.40707   0.39547   0.00000  Uiso   1.00
H413   H     0.93260   0.66302   0.53564   0.00000  Uiso   1.00
H414   H     1.05174   0.75299   0.52239   0.00000  Uiso   1.00
H415   H     0.98953   0.75429   0.60420   0.00000  Uiso   1.00
H416   H     0.34241   0.16028   0.68789   0.00000  Uiso   1.00
H417   H     0.44306   0.17921   0.71220   0.00000  Uiso   1.00
H418   H     0.38918   0.10967   0.62937   0.00000  Uiso   1.00
H419   H     0.57947   0.25341   0.56503   0.00000  Uiso   1.00
H420   H     0.62583   0.35759   0.62998   0.00000  Uiso   1.00
H421   H     0.60448   0.36078   0.53660   0.00000  Uiso   1.00
H422   H     0.91874   0.54942   0.68820   0.00000  Uiso   1.00
H423   H     0.97172   0.67018   0.71385   0.00000  Uiso   1.00
H424   H     1.02217   0.62251   0.73303   0.00000  Uiso   1.00
H425   H     0.82761   0.62908   0.28770   0.00000  Uiso   1.00
H426   H     0.94149   0.65490   0.27228   0.00000  Uiso   1.00
H427   H     0.86682   0.57209   0.34033   0.00000  Uiso   1.00
H428   H     0.83602   0.58170   0.13915   0.00000  Uiso   1.00
H429   H     0.86108   0.49922   0.09613   0.00000  Uiso   1.00
H430   H     0.94359   0.61367   0.13444   0.00000  Uiso   1.00
H431   H     0.62370   0.19215   0.93703   0.00000  Uiso   1.00
H432   H     0.73949   0.22149   0.94458   0.00000  Uiso   1.00
H433   H     0.72429   0.30740   0.91372   0.00000  Uiso   1.00
H434   H     0.74832   0.12102   0.73716   0.00000  Uiso   1.00
H435   H     0.73076   0.18838   0.81018   0.00000  Uiso   1.00
H436   H     0.79881   0.14721   0.82485   0.00000  Uiso   1.00
H437   H     0.92239   0.44142   0.75854   0.00000  Uiso   1.00
H438   H     0.83853   0.38499   0.82415   0.00000  Uiso   1.00
H439   H     0.80324   0.35817   0.73334   0.00000  Uiso   1.00
H440   H     0.94817   0.27964   0.86359   0.00000  Uiso   1.00
H441   H     1.01413   0.39052   0.83055   0.00000  Uiso   1.00
H442   H     1.00959   0.28987   0.78466   0.00000  Uiso   1.00
H443   H     0.89894   0.58357   0.94788   0.00000  Uiso   1.00
H444   H     0.90276   0.54536   0.85846   0.00000  Uiso   1.00
H445   H     0.84920   0.46637   0.91487   0.00000  Uiso   1.00
H446   H     0.81993   0.63959   0.79850   0.00000  Uiso   1.00
H447   H     0.69798   0.55172   0.78886   0.00000  Uiso   1.00
H448   H     0.78681   0.53705   0.76052   0.00000  Uiso   1.00
H449   H     0.65836   0.54854   0.97237   0.00000  Uiso   1.00
H450   H     0.75993   0.65441   0.94449   0.00000  Uiso   1.00
H451   H     0.75656   0.58085   1.01214   0.00000  Uiso   1.00
H452   H     0.75866   0.68242   0.19578   0.00000  Uiso   1.00
H453   H     0.71092   0.71159   0.13694   0.00000  Uiso   1.00
H454   H     0.66123   0.67976   0.22768   0.00000  Uiso   1.00
H455   H     0.79941   0.75197   0.32741   0.00000  Uiso   1.00
H456   H     0.71587   0.78335   0.35575   0.00000  Uiso   1.00
H457   H     0.83999   0.86071   0.36145   0.00000  Uiso   1.00
H458   H     0.80245   0.96687   0.25018   0.00000  Uiso   1.00
H459   H     0.68242   0.86174   0.26011   0.00000  Uiso   1.00
H460   H     0.73497   0.89615   0.16979   0.00000  Uiso   1.00
H461   H     0.67855   0.92344   0.38979   0.00000  Uiso   1.00
H462   H     0.72278   0.88135   0.43507   0.00000  Uiso   1.00
H463   H     0.79753   0.96647   0.37097   0.00000  Uiso   1.00
H464   H     0.75594   0.58910   0.46875   0.00000  Uiso   1.00
H465   H     0.71843   0.65012   0.43810   0.00000  Uiso   1.00
H466   H     0.63875   0.55672   0.48861   0.00000  Uiso   1.00
H467   H     0.79054   0.62776   0.64829   0.00000  Uiso   1.00
H468   H     0.66973   0.56946   0.64762   0.00000  Uiso   1.00
H469   H     0.74194   0.68129   0.69505   0.00000  Uiso   1.00
H470   H     0.70481   0.78394   0.52247   0.00000  Uiso   1.00
H471   H     0.72050   0.80045   0.61404   0.00000  Uiso   1.00
H472   H     0.62042   0.69983   0.58541   0.00000  Uiso   1.00
H473   H     0.86255   0.88912   0.69955   0.00000  Uiso   1.00
H474   H     0.82467   0.96069   0.71260   0.00000  Uiso   1.00
H475   H     0.75501   0.84035   0.73924   0.00000  Uiso   1.00
loop_
_geom_bond_atom_site_label_1
_geom_bond_atom_site_label_2
_geom_bond_distance
_geom_bond_site_symmetry_2
_ccdc_geom_bond_type
Si1    O54     1.642   .     S
Si1    O97     1.646   .     S
Si1    O80     1.574   1_545 S
Si1    O83     1.597   1_545 S
Si2    O55     1.623   .     S
Si2    O64     1.629   .     S
Si2    C52     1.870   1_455 S
Si2    C53     1.853   1_455 S
Si3    O54     1.601   .     S
Si3    C65     1.856   .     S
Si3    O57     1.587   1_554 S
Si3    C106    1.905   1_554 S
Si4    O60     1.599   .     S
Si4    O69     1.621   .     S
Si4    O152    1.540   1_455 S
Si4    O162    1.655   1_455 S
Si5    O55     1.636   .     S
Si5    C56     1.892   .     S
Si5    O70     1.620   .     S
Si5    O99     1.674   .     S
Si6    O57     1.602   .     S
Si6    C58     1.891   .     S
Si6    C59     1.929   1_455 S
Si6    O156    1.622   1_455 S
Si7    O60     1.559   .     S
Si7    C61     1.880   .     S
Si7    C62     1.881   .     S
Si7    C63     1.850   .     S
Si8    O64     1.606   .     S
Si8    C66     1.916   .     S
Si8    C67     1.831   .     S
Si8    O110    1.617   .     S
Si9    O73     1.635   .     S
Si9    O78     1.640   .     S
Si9    C68     1.850   1_455 S
Si9    O176    1.632   1_455 S
Si10   O69     1.642   .     S
Si10   O70     1.625   .     S
Si10   C71     1.866   .     S
Si10   O74     1.617   .     S
Si11   O75     1.564   .     S
Si11   O85     1.620   .     S
Si11   C72     1.829   1_455 S
Si11   O171    1.630   1_455 S
Si12   O73     1.604   .     S
Si12   O74     1.584   .     S
Si12   O86     1.630   .     S
Si12   O112    1.665   .     S
Si13   O75     1.609   .     S
Si13   C76     1.814   .     S
Si13   C77     1.856   .     S
Si13   O95     1.607   .     S
Si14   O78     1.620   .     S
Si14   C79     1.813   .     S
Si14   O82     1.617   .     S
Si14   O128    1.582   .     S
Si15   O80     1.516   .     S
Si15   C90     1.847   .     S
Si15   C81     1.884   1_455 S
Si15   O190    1.606   1_455 S
Si16   O82     1.639   .     S
Si16   O83     1.633   .     S
Si16   C84     1.810   1_554 S
Si16   O146    1.561   1_554 S
Si17   O85     1.619   .     S
Si17   O86     1.608   .     S
Si17   O92     1.593   .     S
Si17   O135    1.566   .     S
Si18   C87     1.869   .     S
Si18   C88     1.813   .     S
Si18   C89     1.812   1_455 S
Si18   O195    1.633   1_455 S
Si19   C91     1.894   .     S
Si19   O92     1.629   .     S
Si19   C93     1.787   .     S
Si19   O131    1.528   .     S
Si20   C94     1.873   .     S
Si20   O95     1.574   .     S
Si20   C96     1.859   .     S
Si20   O143    1.558   .     S
Si21   O100    1.616   .     S
Si21   O147    1.537   .     S
Si21   O130    1.512   1_545 S
Si21   O133    1.598   1_545 S
Si22   O97     1.604   .     S
Si22   C98     1.858   .     S
Si22   O99     1.647   .     S
Si22   O107    1.665   .     S
Si23   O100    1.600   .     S
Si23   O108    1.599   .     S
Si23   O104    1.538   1_554 S
Si23   O161    1.551   1_554 S
Si24   C101    1.872   .     S
Si24   C158    1.867   .     S
Si24   C102    1.861   1_545 S
Si24   O145    1.547   1_545 S
Si25   C103    1.881   .     S
Si25   O104    1.560   .     S
Si25   C105    1.876   .     S
Si25   O116    1.571   .     S
Si26   O107    1.584   .     S
Si26   O108    1.608   .     S
Si26   C109    1.857   .     S
Si26   O166    1.696   .     S
Si27   O110    1.585   .     S
Si27   C111    1.830   .     S
Si27   O112    1.610   .     S
Si27   C124    1.881   .     S
Si28   C113    1.815   .     S
Si28   C114    1.862   .     S
Si28   C115    1.887   .     S
Si28   O172    1.571   .     S
Si29   O116    1.601   .     S
Si29   C117    1.822   .     S
Si29   C122    1.845   .     S
Si29   O186    1.620   .     S
Si30   C118    1.891   .     S
Si30   C119    1.843   .     S
Si30   C120    1.909   .     S
Si30   O139    1.594   .     S
Si31   C121    1.840   .     S
Si31   C123    1.873   .     S
Si31   O140    1.551   .     S
Si31   O175    1.575   .     S
Si32   C125    1.880   .     S
Si32   C126    1.858   .     S
Si32   C127    1.877   .     S
Si32   O132    1.594   .     S
Si33   O128    1.566   .     S
Si33   C129    1.854   .     S
Si33   O130    1.581   .     S
Si33   O131    1.587   .     S
Si34   O132    1.563   .     S
Si34   O133    1.559   .     S
Si34   C134    1.895   1_554 S
Si34   O144    1.639   1_554 S
Si35   O135    1.571   .     S
Si35   C136    1.908   .     S
Si35   C137    1.832   .     S
Si35   C138    1.879   .     S
Si36   O139    1.590   .     S
Si36   O140    1.566   .     S
Si36   C141    1.900   .     S
Si36   C142    1.788   .     S
Si37   O143    1.635   .     S
Si37   O144    1.616   .     S
Si37   O145    1.644   .     S
Si37   O146    1.654   .     S
Si38   O147    1.586   .     S
Si38   C148    1.871   .     S
Si38   C149    1.824   .     S
Si38   C150    1.862   .     S
Si39   C151    1.873   .     S
Si39   O152    1.558   .     S
Si39   C153    1.911   1_545 S
Si39   C194    1.838   1_545 S
Si40   C154    1.801   .     S
Si40   C155    1.977   .     S
Si40   O163    1.624   .     S
Si40   O169    1.606   .     S
Si41   O156    1.594   .     S
Si41   C164    1.818   .     S
Si41   C157    1.930   1_545 S
Si41   C199    1.883   1_545 S
Si42   C159    1.808   .     S
Si42   C160    1.860   .     S
Si42   O161    1.638   .     S
Si42   C181    1.856   .     S
Si43   O162    1.578   .     S
Si43   O163    1.570   .     S
Si43   C165    1.926   .     S
Si43   O183    1.591   .     S
Si44   O166    1.620   .     S
Si44   C167    1.930   .     S
Si44   C168    1.834   .     S
Si44   O177    1.613   .     S
Si45   O169    1.592   .     S
Si45   C170    1.814   .     S
Si45   O171    1.617   .     S
Si45   C178    1.865   .     S
Si46   O172    1.603   .     S
Si46   C173    1.878   .     S
Si46   C174    1.901   .     S
Si46   O175    1.565   .     S
Si47   O176    1.608   .     S
Si47   O177    1.618   .     S
Si47   C179    1.840   .     S
Si47   C180    1.829   .     S
Si48   C182    1.864   .     S
Si48   O183    1.597   .     S
Si48   C184    1.874   .     S
Si48   C185    1.898   .     S
Si49   O186    1.571   .     S
Si49   C187    1.894   .     S
Si49   C188    1.850   .     S
Si49   C189    1.909   .     S
Si50   O190    1.578   .     S
Si50   C191    1.837   .     S
Si50   C192    1.837   .     S
Si50   C193    1.864   .     S
Si51   O195    1.577   .     S
Si51   C196    1.923   .     S
Si51   C197    1.884   .     S
Si51   C198    1.828   .     S
C52    H200    1.089   .     S
C52    H201    1.111   .     S
C52    H202    1.153   .     S
C52    Si2     1.870   1_655 S
C53    H203    1.117   .     S
C53    H204    1.066   .     S
C53    H205    1.149   .     S
C53    Si2     1.853   1_655 S
C56    H206    1.166   .     S
C56    H207    1.125   .     S
C56    H208    1.131   .     S
O57    Si3     1.587   1_556 S
C58    H209    1.073   .     S
C58    H210    1.057   .     S
C58    H211    1.151   .     S
C59    H212    1.052   .     S
C59    H213    1.120   .     S
C59    H214    1.111   .     S
C59    Si6     1.929   1_655 S
C61    H215    1.149   .     S
C61    H216    1.148   .     S
C61    H217    1.096   .     S
C62    H218    1.100   .     S
C62    H219    1.134   .     S
C62    H220    1.104   .     S
C63    H221    1.127   .     S
C63    H222    1.134   .     S
C63    H223    1.139   .     S
C65    H224    1.123   .     S
C65    H225    1.142   .     S
C65    H226    1.114   .     S
C66    H227    1.116   .     S
C66    H228    1.132   .     S
C66    H229    1.060   .     S
C67    H230    1.107   .     S
C67    H231    1.081   .     S
C67    H232    1.125   .     S
C68    H233    1.041   .     S
C68    H234    1.108   .     S
C68    H235    1.109   .     S
C68    Si9     1.850   1_655 S
C71    H236    1.182   .     S
C71    H237    1.103   .     S
C71    H238    1.109   .     S
C72    H239    1.098   .     S
C72    H240    1.116   .     S
C72    H241    1.078   .     S
C72    Si11    1.829   1_655 S
C76    H242    1.120   .     S
C76    H243    1.103   .     S
C76    H244    1.081   .     S
C77    H245    1.170   .     S
C77    H246    1.088   .     S
C77    H247    1.097   .     S
C79    H248    1.072   .     S
C79    H249    1.129   .     S
C79    H250    1.144   .     S
O80    Si1     1.574   1_565 S
C81    H251    1.084   .     S
C81    H252    1.135   .     S
C81    H253    1.062   .     S
C81    Si15    1.884   1_655 S
O83    Si1     1.597   1_565 S
C84    H254    1.090   .     S
C84    H255    1.156   .     S
C84    H256    1.090   .     S
C84    Si16    1.810   1_556 S
C87    H257    1.069   .     S
C87    H258    1.097   .     S
C87    H259    1.072   .     S
C88    H260    1.093   .     S
C88    H261    1.093   .     S
C88    H262    1.104   .     S
C89    H263    1.087   .     S
C89    H264    1.115   .     S
C89    H265    1.042   .     S
C89    Si18    1.812   1_655 S
C90    H266    1.088   .     S
C90    H267    1.133   .     S
C90    H268    1.122   .     S
C91    H269    1.097   .     S
C91    H270    1.129   .     S
C91    H271    1.108   .     S
C93    H272    1.084   .     S
C93    H273    1.094   .     S
C93    H274    1.103   .     S
C94    H275    1.063   .     S
C94    H276    1.157   .     S
C94    H277    1.104   .     S
C96    H278    1.100   .     S
C96    H279    1.094   .     S
C96    H280    1.077   .     S
C98    H281    1.121   .     S
C98    H282    1.095   .     S
C98    H283    1.093   .     S
C101   H284    1.076   .     S
C101   H285    1.095   .     S
C101   H286    1.082   .     S
C102   H287    1.120   .     S
C102   H288    1.171   .     S
C102   H289    1.111   .     S
C102   Si24    1.861   1_565 S
C103   H290    1.112   .     S
C103   H291    1.074   .     S
C103   H292    1.080   .     S
O104   Si23    1.538   1_556 S
C105   H293    1.128   .     S
C105   H294    1.102   .     S
C105   H295    1.119   .     S
C106   H296    1.042   .     S
C106   H297    1.123   .     S
C106   H298    1.095   .     S
C106   Si3     1.905   1_556 S
C109   H299    1.113   .     S
C109   H300    1.130   .     S
C109   H301    1.082   .     S
C111   H302    1.058   .     S
C111   H303    1.106   .     S
C111   H304    1.143   .     S
C113   H305    1.105   .     S
C113   H306    1.095   .     S
C113   H307    1.157   .     S
C114   H308    1.081   .     S
C114   H309    1.092   .     S
C114   H310    1.119   .     S
C115   H311    1.078   .     S
C115   H312    1.174   .     S
C115   H313    1.098   .     S
C117   H314    1.123   .     S
C117   H315    1.111   .     S
C117   H316    1.116   .     S
C118   H317    1.125   .     S
C118   H318    1.052   .     S
C118   H319    1.119   .     S
C119   H320    1.094   .     S
C119   H321    1.058   .     S
C119   H322    1.106   .     S
C120   H323    1.189   .     S
C120   H324    1.088   .     S
C120   H325    1.089   .     S
C121   H326    1.118   .     S
C121   H327    1.101   .     S
C121   H328    1.133   .     S
C122   H329    1.079   .     S
C122   H330    1.110   .     S
C122   H331    1.097   .     S
C123   H332    1.164   .     S
C123   H333    1.066   .     S
C123   H334    1.113   .     S
C124   H335    1.038   .     S
C124   H336    1.128   .     S
C124   H337    1.170   .     S
C125   H338    1.138   .     S
C125   H339    1.150   .     S
C125   H340    1.156   .     S
C126   H341    1.158   .     S
C126   H342    1.089   .     S
C126   H343    1.063   .     S
C127   H344    1.094   .     S
C127   H345    1.071   .     S
C127   H346    1.142   .     S
C129   H347    1.067   .     S
C129   H348    1.082   .     S
C129   H349    1.103   .     S
O130   Si21    1.512   1_565 S
O133   Si21    1.598   1_565 S
C134   H350    1.106   .     S
C134   H351    1.068   .     S
C134   H352    1.079   .     S
C134   Si34    1.895   1_556 S
C136   H353    1.101   .     S
C136   H354    1.113   .     S
C136   H355    1.095   .     S
C137   H356    1.108   .     S
C137   H357    1.131   .     S
C137   H358    1.089   .     S
C138   H359    1.122   .     S
C138   H360    1.149   .     S
C138   H361    1.143   .     S
C141   H362    1.053   .     S
C141   H363    1.108   .     S
C141   H364    1.099   .     S
C142   H365    1.157   .     S
C142   H366    1.037   .     S
C142   H367    1.129   .     S
O144   Si34    1.639   1_556 S
O145   Si24    1.547   1_565 S
O146   Si16    1.561   1_556 S
C148   H368    1.128   .     S
C148   H369    1.141   .     S
C148   H370    1.127   .     S
C149   H371    1.155   .     S
C149   H372    1.139   .     S
C149   H373    1.115   .     S
C150   H374    1.097   .     S
C150   H375    1.115   .     S
C150   H376    1.096   .     S
C151   H377    1.114   .     S
C151   H378    1.040   .     S
C151   H379    1.095   .     S
O152   Si4     1.540   1_655 S
C153   H380    1.121   .     S
C153   H381    1.099   .     S
C153   H382    1.144   .     S
C153   Si39    1.911   1_565 S
C154   H383    1.121   .     S
C154   H384    1.104   .     S
C154   H385    1.103   .     S
C155   H386    1.100   .     S
C155   H387    1.091   .     S
C155   H388    1.121   .     S
O156   Si6     1.622   1_655 S
C157   H389    1.080   .     S
C157   H390    1.071   .     S
C157   H391    1.181   .     S
C157   Si41    1.930   1_565 S
C158   H392    1.129   .     S
C158   H393    1.082   .     S
C158   H394    1.100   .     S
C159   H395    1.146   .     S
C159   H396    1.112   .     S
C159   H397    1.068   .     S
C160   H398    1.060   .     S
C160   H399    1.142   .     S
C160   H400    1.119   .     S
O161   Si23    1.551   1_556 S
O162   Si4     1.655   1_655 S
C164   H401    1.107   .     S
C164   H402    1.081   .     S
C164   H403    1.078   .     S
C165   H404    1.083   .     S
C165   H405    1.118   .     S
C165   H406    1.178   .     S
C167   H407    1.127   .     S
C167   H408    1.076   .     S
C167   H409    1.112   .     S
C168   H410    1.102   .     S
C168   H411    1.101   .     S
C168   H412    1.170   .     S
C170   H413    1.115   .     S
C170   H414    1.096   .     S
C170   H415    1.120   .     S
O171   Si11    1.630   1_655 S
C173   H416    1.097   .     S
C173   H417    1.090   .     S
C173   H418    1.148   .     S
C174   H419    1.122   .     S
C174   H420    1.164   .     S
C174   H421    1.104   .     S
O176   Si9     1.632   1_655 S
C178   H422    1.099   .     S
C178   H423    1.048   .     S
C178   H424    1.067   .     S
C179   H425    1.146   .     S
C179   H426    1.106   .     S
C179   H427    1.110   .     S
C180   H428    1.049   .     S
C180   H429    1.150   .     S
C180   H430    1.066   .     S
C181   H431    1.104   .     S
C181   H432    1.145   .     S
C181   H433    1.190   .     S
C182   H434    1.147   .     S
C182   H435    1.113   .     S
C182   H436    1.072   .     S
C184   H437    1.107   .     S
C184   H438    1.078   .     S
C184   H439    1.099   .     S
C185   H440    1.091   .     S
C185   H441    1.123   .     S
C185   H442    1.107   .     S
C187   H443    1.088   .     S
C187   H444    1.032   .     S
C187   H445    1.110   .     S
C188   H446    1.068   .     S
C188   H447    1.122   .     S
C188   H448    1.057   .     S
C189   H449    1.130   .     S
C189   H450    1.087   .     S
C189   H451    1.111   .     S
O190   Si15    1.606   1_655 S
C191   H452    1.070   .     S
C191   H453    1.126   .     S
C191   H454    1.063   .     S
C192   H455    1.095   .     S
C192   H456    1.181   .     S
C192   H457    1.088   .     S
C193   H458    1.165   .     S
C193   H459    1.123   .     S
C193   H460    1.159   .     S
C194   H461    1.057   .     S
C194   H462    1.129   .     S
C194   H463    1.097   .     S
C194   Si39    1.838   1_565 S
O195   Si18    1.633   1_655 S
C196   H464    1.115   .     S
C196   H465    1.098   .     S
C196   H466    1.072   .     S
C197   H467    1.115   .     S
C197   H468    1.153   .     S
C197   H469    1.111   .     S
C198   H470    1.070   .     S
C198   H471    1.087   .     S
C198   H472    1.090   .     S
C199   H473    1.116   .     S
C199   H474    1.105   .     S
C199   H475    1.114   .     S
C199   Si41    1.883   1_565 S
