data_333-13-11-12-15-30-3
_audit_creation_date              2025-03-07
_audit_creation_method            'Materials Studio'
_symmetry_space_group_name_H-M    'P1'
_symmetry_Int_Tables_number       1
_symmetry_cell_setting            triclinic
loop_
_symmetry_equiv_pos_as_xyz
  x,y,z
_cell_length_a                    15.8872
_cell_length_b                    16.4255
_cell_length_c                    20.8107
_cell_angle_alpha                 100.5508
_cell_angle_beta                  91.2207
_cell_angle_gamma                 122.0124
loop_
_atom_site_label
_atom_site_type_symbol
_atom_site_fract_x
_atom_site_fract_y
_atom_site_fract_z
_atom_site_U_iso_or_equiv
_atom_site_adp_type
_atom_site_occupancy
Si1    Si    0.09594   0.07441  -0.09314   0.00000  Uiso   1.00
Si2    Si    0.17429  -0.03447   0.56849   0.00000  Uiso   1.00
Si3    Si   -0.05153   0.13236   0.56879   0.00000  Uiso   1.00
Si4    Si   -0.03836   0.09420   0.32239   0.00000  Uiso   1.00
Si5    Si    0.00118   0.18069   0.86624   0.00000  Uiso   1.00
Si6    Si    0.24427   0.44511   0.04487   0.00000  Uiso   1.00
Si7    Si    0.22520   0.56561  -0.04568   0.00000  Uiso   1.00
Si8    Si   -0.11450   0.16220   0.44051   0.00000  Uiso   1.00
Si9    Si   -0.01448   0.48590   0.57693   0.00000  Uiso   1.00
Si10   Si    0.17224   0.32309   0.80268   0.00000  Uiso   1.00
Si11   Si    0.03660   0.53618   0.86228   0.00000  Uiso   1.00
Si12   Si    0.23987   0.71371   0.07570   0.00000  Uiso   1.00
Si13   Si    0.05145   0.85865   0.18358   0.00000  Uiso   1.00
Si14   Si    0.28154   0.89646   0.03226   0.00000  Uiso   1.00
Si15   Si    0.02126   0.84930   0.65118   0.00000  Uiso   1.00
Si16   Si    0.19261   0.69992   0.79572   0.00000  Uiso   1.00
Si17   Si    0.18987   0.85154   0.72829   0.00000  Uiso   1.00
Si18   Si    0.49925   0.01514   0.44615   0.00000  Uiso   1.00
Si19   Si    0.55080   0.18136   0.37709   0.00000  Uiso   1.00
Si20   Si    0.57945   0.58657  -0.06141   0.00000  Uiso   1.00
Si21   Si    0.53805   0.34014   0.46457   0.00000  Uiso   1.00
Si22   Si    0.34754   0.40559   0.60024   0.00000  Uiso   1.00
Si23   Si    0.45696   0.36867   0.34335   0.00000  Uiso   1.00
Si24   Si    0.54391   0.37042   0.76651   0.00000  Uiso   1.00
Si25   Si    0.37271   0.53871   0.86501   0.00000  Uiso   1.00
Si26   Si    0.54943   0.50583   0.68102   0.00000  Uiso   1.00
Si27   Si    0.61346   0.74968   0.05246   0.00000  Uiso   1.00
Si28   Si    0.39560   0.81455   0.19825   0.00000  Uiso   1.00
Si29   Si    0.38043   0.80815   0.34511   0.00000  Uiso   1.00
Si30   Si    0.51808   0.65990   0.76671   0.00000  Uiso   1.00
Si31   Si    0.50102   0.75432   0.65690   0.00000  Uiso   1.00
Si32   Si    0.89342   0.17334   0.09058   0.00000  Uiso   1.00
Si33   Si    0.67321   0.19692   0.26570   0.00000  Uiso   1.00
Si34   Si    0.88911   0.23590  -0.03499   0.00000  Uiso   1.00
Si35   Si    0.70175  -0.16344   0.45624   0.00000  Uiso   1.00
Si36   Si    0.62497   0.10664   0.58541   0.00000  Uiso   1.00
Si37   Si    0.82685   0.02443   0.75914   0.00000  Uiso   1.00
Si38   Si    0.82471   0.16595   0.67018   0.00000  Uiso   1.00
Si39   Si    0.76656   0.53190   0.14818   0.00000  Uiso   1.00
Si40   Si    0.87168   0.55338  -0.06062   0.00000  Uiso   1.00
Si41   Si    0.69816   0.50568   0.59042   0.00000  Uiso   1.00
Si42   Si    0.90312   0.59040   0.40436   0.00000  Uiso   1.00
Si43   Si    0.86344   0.37032   0.75771   0.00000  Uiso   1.00
Si44   Si    0.71716   0.56000   0.84739   0.00000  Uiso   1.00
Si45   Si    0.85552   0.51483   0.67774   0.00000  Uiso   1.00
Si46   Si    0.89892   0.69008   0.07324   0.00000  Uiso   1.00
Si47   Si    0.87830   0.67642   0.53774   0.00000  Uiso   1.00
Si48   Si    0.66762   0.75788   0.58151   0.00000  Uiso   1.00
Si49   Si    0.85916   0.69590   0.76584   0.00000  Uiso   1.00
Si50   Si    0.68166   0.88217   0.84532   0.00000  Uiso   1.00
Si51   Si    0.83957   0.83649   0.69382   0.00000  Uiso   1.00
C52    C     0.05293  -0.00435  -0.03426   0.00000  Uiso   1.00
C53    C     0.07387  -0.00095   0.82561   0.00000  Uiso   1.00
C54    C     0.28808   0.06064   0.62299   0.00000  Uiso   1.00
C55    C     0.16956   0.86038   0.51477   0.00000  Uiso   1.00
C56    C     0.07923   0.22179   0.56756   0.00000  Uiso   1.00
C57    C    -0.12336  -0.01130   0.25066   0.00000  Uiso   1.00
C58    C     0.14680   0.01505   0.50407   0.00000  Uiso   1.00
C59    C     0.04911   0.06822   0.36498   0.00000  Uiso   1.00
C60    C     0.03422   0.21219   0.29495   0.00000  Uiso   1.00
O61    O     0.03028   0.12173   0.90592   0.00000  Uiso   1.00
C62    C     0.16274   0.31223   0.02340   0.00000  Uiso   1.00
C63    C     0.23513   0.17055  -0.06942   0.00000  Uiso   1.00
C64    C     0.35995   0.46031   0.01915   0.00000  Uiso   1.00
C65    C     0.25574   0.49631   0.13504   0.00000  Uiso   1.00
O66    O     0.20308   0.48691  -0.00357   0.00000  Uiso   1.00
O67    O    -0.11069   0.11202   0.49970   0.00000  Uiso   1.00
O68    O    -0.10614   0.10133   0.37517   0.00000  Uiso   1.00
C69    C    -0.23164   0.15504   0.43087   0.00000  Uiso   1.00
C70    C     0.02587   0.42556   0.61972   0.00000  Uiso   1.00
C71    C     0.09573   0.58258   0.54442   0.00000  Uiso   1.00
C72    C     0.87574   0.39777   0.51752   0.00000  Uiso   1.00
O73    O     0.10837   0.27256   0.85596   0.00000  Uiso   1.00
C74    C     0.19751   0.23530   0.75609   0.00000  Uiso   1.00
C75    C     0.09517   0.34715   0.74591   0.00000  Uiso   1.00
O76    O     0.11996   0.52871   0.90927   0.00000  Uiso   1.00
C77    C     0.11360   0.62430   0.09328   0.00000  Uiso   1.00
O78    O     0.25751   0.66573   0.00800   0.00000  Uiso   1.00
C79    C     0.16963   0.88410   0.22313   0.00000  Uiso   1.00
C80    C     0.06523   0.96397   0.15111   0.00000  Uiso   1.00
C81    C     0.96405   0.83487   0.24929   0.00000  Uiso   1.00
O82    O     0.24418   0.81109   0.07061   0.00000  Uiso   1.00
C83    C     0.29797   1.01082   0.08086   0.00000  Uiso   1.00
C84    C     0.17606   0.84689   0.96105   0.00000  Uiso   1.00
C85    C     0.40067   0.92764   1.00319   0.00000  Uiso   1.00
O86    O     0.08777   0.93394   0.61229   0.00000  Uiso   1.00
O87    O     0.09527   0.61925   0.82359   0.00000  Uiso   1.00
C88    C     0.22327   0.63785   0.72802   0.00000  Uiso   1.00
C89    C     0.29861   0.77732   0.86060   0.00000  Uiso   1.00
O90    O     0.09375   0.85893   0.71233   0.00000  Uiso   1.00
O91    O     0.15627   0.76398   0.76795   0.00000  Uiso   1.00
C92    C     0.29880   0.96904   0.78072   0.00000  Uiso   1.00
C93    C     0.23175   0.81592   0.65159   0.00000  Uiso   1.00
C94    C     0.39248   1.01508   0.48214   0.00000  Uiso   1.00
C95    C     0.42564   0.11245   0.32082   0.00000  Uiso   1.00
O96    O     0.55503   0.10256   0.41018   0.00000  Uiso   1.00
C97    C     0.57706   0.50072  -0.01769   0.00000  Uiso   1.00
C98    C     0.40987   0.25388   0.47939   0.00000  Uiso   1.00
O99    O     0.57605   0.27363   0.43566   0.00000  Uiso   1.00
C100   C    -0.00915   0.28949   0.44710   0.00000  Uiso   1.00
C101   C     0.30365   0.40817   0.51742   0.00000  Uiso   1.00
C102   C     0.29151   0.45285   0.65959   0.00000  Uiso   1.00
C103   C     0.30353   0.27551   0.60644   0.00000  Uiso   1.00
C104   C     0.31920   0.27624   0.33703   0.00000  Uiso   1.00
O105   O     0.52717   0.38596   0.40648   0.00000  Uiso   1.00
C106   C     0.47243   0.48736   0.33122   0.00000  Uiso   1.00
C107   C     0.45109   0.32491   0.82717   0.00000  Uiso   1.00
C108   C     0.53666   0.25887   0.72120   0.00000  Uiso   1.00
O109   O     0.28543   0.42310   0.83006   0.00000  Uiso   1.00
O110   O     0.46307   0.54762   0.91161   0.00000  Uiso   1.00
O111   O     0.31672   0.58323   0.91057   0.00000  Uiso   1.00
O112   O     0.46622   0.47792   0.62523   0.00000  Uiso   1.00
O113   O     0.52515   0.41782   0.71242   0.00000  Uiso   1.00
C114   C     0.61336   0.68977   0.12192   0.00000  Uiso   1.00
O115   O     0.62787   0.69302  -0.01081   0.00000  Uiso   1.00
C116   C     0.49301   0.74051   0.03531   0.00000  Uiso   1.00
C117   C     0.70744   0.88024   0.06409   0.00000  Uiso   1.00
O118   O     0.31378   0.73297   0.13840   0.00000  Uiso   1.00
C119   C     0.50207   0.79877   0.20736   0.00000  Uiso   1.00
C120   C     0.44640   0.93734   0.18031   0.00000  Uiso   1.00
O121   O     0.35709   0.81395   0.27047   0.00000  Uiso   1.00
C122   C     0.26021   0.75589   0.38097   0.00000  Uiso   1.00
O123   O     0.46294   0.91485   0.39178   0.00000  Uiso   1.00
C124   C     0.42105   0.72263   0.34807   0.00000  Uiso   1.00
O125   O     0.43066   0.61322   0.81535   0.00000  Uiso   1.00
O126   O     0.55717   0.58974   0.74015   0.00000  Uiso   1.00
C127   C     0.39341   0.70169   0.59113   0.00000  Uiso   1.00
O128   O     0.47611   0.67660   0.70326   0.00000  Uiso   1.00
C129   C     0.51604   0.86520   0.71397   0.00000  Uiso   1.00
C130   C     0.98643   0.29154   0.15227   0.00000  Uiso   1.00
C131   C     0.76554   1.12569   0.10524   0.00000  Uiso   1.00
C132   C     0.94027   1.08991   0.09355   0.00000  Uiso   1.00
C133   C     0.58891   0.18222   0.19260   0.00000  Uiso   1.00
C134   C     0.66927   0.07994   0.26931   0.00000  Uiso   1.00
C135   C     0.80487   0.29186   0.26062   0.00000  Uiso   1.00
O136   O     0.63746   0.22722   0.33138   0.00000  Uiso   1.00
O137   O     0.94329   0.22257   0.90381   0.00000  Uiso   1.00
O138   O     0.90139   0.18378   0.01597   0.00000  Uiso   1.00
C139   C     0.95452   0.36940   0.00606   0.00000  Uiso   1.00
C140   C     0.74890   0.16854   0.93873   0.00000  Uiso   1.00
C141   C     0.63885  -0.09474   0.45652   0.00000  Uiso   1.00
C142   C     0.81751  -0.09795   0.41741   0.00000  Uiso   1.00
C143   C     0.94461   0.03372   0.59302   0.00000  Uiso   1.00
C144   C     0.61730   0.71557   0.39595   0.00000  Uiso   1.00
O145   O     0.57533   0.03841   0.51146   0.00000  Uiso   1.00
C146   C     0.64882   0.23239   0.58456   0.00000  Uiso   1.00
C147   C     0.52273   0.04409   0.64009   0.00000  Uiso   1.00
O148   O     0.93361   0.10680   0.79953   0.00000  Uiso   1.00
O149   O     0.91151   0.17919   0.62480   0.00000  Uiso   1.00
O150   O     0.72620   0.11333   0.61608   0.00000  Uiso   1.00
O151   O     0.79712   0.08480   0.71908   0.00000  Uiso   1.00
C152   C     0.64634   0.41789   0.10399   0.00000  Uiso   1.00
C153   C     0.72885   0.58029   0.22250   0.00000  Uiso   1.00
C154   C     0.49527   0.33152   0.26460   0.00000  Uiso   1.00
O155   O     0.96322   0.55916   0.90503   0.00000  Uiso   1.00
C156   C     0.78675   0.43356  -0.04330   0.00000  Uiso   1.00
O157   O     0.61251   0.41367   0.53254   0.00000  Uiso   1.00
O158   O     0.64877   0.54188   0.64764   0.00000  Uiso   1.00
C159   C     0.97952   0.53883   0.38581   0.00000  Uiso   1.00
C160   C     0.85984   0.50207   0.17227   0.00000  Uiso   1.00
C161   C     0.95342   0.69547   0.36467   0.00000  Uiso   1.00
C162   C     0.77102   0.48628   0.37201   0.00000  Uiso   1.00
C163   C     0.76208   0.29704   0.80266   0.00000  Uiso   1.00
O164   O     0.86087   0.28038   0.70692   0.00000  Uiso   1.00
O165   O     0.96564   0.43548   0.80561   0.00000  Uiso   1.00
O166   O     0.65532   0.44980   0.80667   0.00000  Uiso   1.00
O167   O     0.80821   0.58135   0.89462   0.00000  Uiso   1.00
O168   O     0.64595   0.59216   0.88074   0.00000  Uiso   1.00
O169   O     0.94760   0.53767   0.63362   0.00000  Uiso   1.00
O170   O     0.75976   0.47035   0.62680   0.00000  Uiso   1.00
O171   O     0.84524   0.44442   0.72736   0.00000  Uiso   1.00
O172   O     0.80802   0.61014   0.10294   0.00000  Uiso   1.00
O173   O     0.92027   0.63249   0.00711   0.00000  Uiso   1.00
C174   C     0.85502   0.75778   0.03470   0.00000  Uiso   1.00
O175   O     1.00050   0.76423   0.12637   0.00000  Uiso   1.00
O176   O     0.77580   0.59691   0.55720   0.00000  Uiso   1.00
O177   O     0.91209   0.62666   0.48250   0.00000  Uiso   1.00
C178   C     0.85532   0.75987   0.50253   0.00000  Uiso   1.00
O179   O     0.96395   0.74357   0.60116   0.00000  Uiso   1.00
C180   C     0.58364   0.63194   0.53072   0.00000  Uiso   1.00
O181   O     0.71204   0.82636   0.53073   0.00000  Uiso   1.00
O182   O     0.60157   0.78679   0.62347   0.00000  Uiso   1.00
O183   O     0.76515   0.62719   0.79489   0.00000  Uiso   1.00
O184   O     0.88279   0.62585   0.71413   0.00000  Uiso   1.00
C185   C     0.96146   0.76344   0.84083   0.00000  Uiso   1.00
O186   O     0.61793   0.77144   0.79835   0.00000  Uiso   1.00
C187   C     0.77948   0.88081   0.89925   0.00000  Uiso   1.00
O188   O     0.74359   0.97388   0.80962   0.00000  Uiso   1.00
C189   C     0.58809   0.90161   0.89525   0.00000  Uiso   1.00
O190   O     0.94624   0.87820   0.67587   0.00000  Uiso   1.00
O191   O     0.75954   0.77355   0.62928   0.00000  Uiso   1.00
O192   O     0.82983   0.76538   0.73962   0.00000  Uiso   1.00
O193   O     0.83616   0.93691   0.71482   0.00000  Uiso   1.00
H194   H     0.05862  -0.06813  -0.04716   0.00000  Uiso   1.00
H195   H    -0.02478  -0.03223  -0.03280   0.00000  Uiso   1.00
H196   H     0.09183   0.04227   0.01514   0.00000  Uiso   1.00
H197   H     0.12788  -0.02245   0.82098   0.00000  Uiso   1.00
H198   H     0.07982   0.03590   0.78550   0.00000  Uiso   1.00
H199   H    -0.00134  -0.06087   0.82416   0.00000  Uiso   1.00
H200   H     0.34583   0.11857   0.59990   0.00000  Uiso   1.00
H201   H     0.32292   0.03104   0.64500   0.00000  Uiso   1.00
H202   H     0.26816   0.09738   0.66324   0.00000  Uiso   1.00
H203   H     0.18326   0.87998   0.46406   0.00000  Uiso   1.00
H204   H     0.09578   0.79405   0.50889   0.00000  Uiso   1.00
H205   H     0.22695   0.84983   0.53508   0.00000  Uiso   1.00
H206   H     0.09006   0.29401   0.55900   0.00000  Uiso   1.00
H207   H     0.10563   0.18701   0.53305   0.00000  Uiso   1.00
H208   H     0.12141   0.24251   0.61939   0.00000  Uiso   1.00
H209   H    -0.17752  -0.08301   0.26697   0.00000  Uiso   1.00
H210   H    -0.07314  -0.01406   0.21717   0.00000  Uiso   1.00
H211   H    -0.17512  -0.00139   0.21894   0.00000  Uiso   1.00
H212   H     0.14472   0.07938   0.52889   0.00000  Uiso   1.00
H213   H     0.07878  -0.04110   0.46708   0.00000  Uiso   1.00
H214   H     0.20524   0.03927   0.47421   0.00000  Uiso   1.00
H215   H     0.09945   0.07005   0.33308   0.00000  Uiso   1.00
H216   H     0.01360   0.00158   0.38448   0.00000  Uiso   1.00
H217   H     0.09052   0.13002   0.41023   0.00000  Uiso   1.00
H218   H     0.09821   0.26862   0.33579   0.00000  Uiso   1.00
H219   H    -0.01775   0.24207   0.29149   0.00000  Uiso   1.00
H220   H     0.06607   0.20461   0.25102   0.00000  Uiso   1.00
H221   H     0.08788   0.28594   0.03769   0.00000  Uiso   1.00
H222   H     0.20282   0.28731   0.05360   0.00000  Uiso   1.00
H223   H     0.15915   0.29368  -0.03252   0.00000  Uiso   1.00
H224   H     0.25969   0.18203  -0.01365   0.00000  Uiso   1.00
H225   H     0.25432   0.24441  -0.07843   0.00000  Uiso   1.00
H226   H     0.27642   0.15070  -0.10553   0.00000  Uiso   1.00
H227   H     0.34487   0.41102  -0.02919   0.00000  Uiso   1.00
H228   H     0.39956   0.44455   0.05346   0.00000  Uiso   1.00
H229   H     0.40577   0.53353   0.01498   0.00000  Uiso   1.00
H230   H     0.29794   0.57711   0.14971   0.00000  Uiso   1.00
H231   H     0.29359   0.46797   0.16102   0.00000  Uiso   1.00
H232   H     0.17990   0.46678   0.14909   0.00000  Uiso   1.00
H233   H    -0.29516   0.07385   0.40962   0.00000  Uiso   1.00
H234   H    -0.23040   0.20259   0.39621   0.00000  Uiso   1.00
H235   H    -0.24445   0.17465   0.48476   0.00000  Uiso   1.00
H236   H     0.11061   0.45451   0.62098   0.00000  Uiso   1.00
H237   H    -0.02460   0.34457   0.59577   0.00000  Uiso   1.00
H238   H     0.00646   0.43420   0.67080   0.00000  Uiso   1.00
H239   H     0.12162   0.55602   0.50109   0.00000  Uiso   1.00
H240   H     0.15419   0.61743   0.58544   0.00000  Uiso   1.00
H241   H     0.08049   0.63825   0.53388   0.00000  Uiso   1.00
H242   H     0.88924   0.36744   0.47138   0.00000  Uiso   1.00
H243   H     0.83052   0.43042   0.50659   0.00000  Uiso   1.00
H244   H     0.82677   0.34181   0.54202   0.00000  Uiso   1.00
H245   H     0.21003   0.20259   0.79262   0.00000  Uiso   1.00
H246   H     0.27165   0.28459   0.74296   0.00000  Uiso   1.00
H247   H     0.13486   0.18265   0.71666   0.00000  Uiso   1.00
H248   H     0.02490   0.32770   0.76689   0.00000  Uiso   1.00
H249   H     0.06860   0.30065   0.69416   0.00000  Uiso   1.00
H250   H     0.14063   0.42619   0.73980   0.00000  Uiso   1.00
H251   H     0.04668   0.60566   0.05736   0.00000  Uiso   1.00
H252   H     0.11066   0.67328   0.13807   0.00000  Uiso   1.00
H253   H     0.10622   0.55694   0.10707   0.00000  Uiso   1.00
H254   H     0.22667   0.96604   0.22904   0.00000  Uiso   1.00
H255   H     0.20687   0.85700   0.18798   0.00000  Uiso   1.00
H256   H     0.16151   0.86359   0.26951   0.00000  Uiso   1.00
H257   H     0.09715   0.96484   0.10371   0.00000  Uiso   1.00
H258   H     0.10982   1.03698   0.18570   0.00000  Uiso   1.00
H259   H    -0.00611   0.95034   0.13805   0.00000  Uiso   1.00
H260   H     0.89077   0.82085   0.22808   0.00000  Uiso   1.00
H261   H     1.00535   0.90808   0.28737   0.00000  Uiso   1.00
H262   H     0.95134   0.77552   0.27108   0.00000  Uiso   1.00
H263   H     0.25096   0.99311   0.11938   0.00000  Uiso   1.00
H264   H     0.27704   1.04356   0.04734   0.00000  Uiso   1.00
H265   H     0.37541   1.06920   0.10646   0.00000  Uiso   1.00
H266   H     0.20900   0.90312   0.93043   0.00000  Uiso   1.00
H267   H     0.11916   0.85390   0.98460   0.00000  Uiso   1.00
H268   H     0.14075   0.76798   0.93968   0.00000  Uiso   1.00
H269   H     0.41263   0.96107   0.95977   0.00000  Uiso   1.00
H270   H     0.40454   0.86159   0.98708   0.00000  Uiso   1.00
H271   H     0.46984   0.98463   1.03676   0.00000  Uiso   1.00
H272   H     0.29858   0.69398   0.71918   0.00000  Uiso   1.00
H273   H     0.15343   0.59525   0.69082   0.00000  Uiso   1.00
H274   H     0.22954   0.58392   0.74408   0.00000  Uiso   1.00
H275   H     0.27551   0.74534   0.90397   0.00000  Uiso   1.00
H276   H     0.31627   0.85361   0.86777   0.00000  Uiso   1.00
H277   H     0.36141   0.77442   0.84494   0.00000  Uiso   1.00
H278   H     0.36309   0.96549   0.78933   0.00000  Uiso   1.00
H279   H     0.27610   0.98126   0.83043   0.00000  Uiso   1.00
H280   H     0.32113   1.03119   0.75778   0.00000  Uiso   1.00
H281   H     0.26470   0.77483   0.66144   0.00000  Uiso   1.00
H282   H     0.29361   0.88537   0.63869   0.00000  Uiso   1.00
H283   H     0.16826   0.77199   0.61215   0.00000  Uiso   1.00
H284   H     0.37488   0.98397   0.52520   0.00000  Uiso   1.00
H285   H     0.33331   0.97874   0.44039   0.00000  Uiso   1.00
H286   H     0.40825   1.09343   0.50049   0.00000  Uiso   1.00
H287   H     0.36046   0.07184   0.34799   0.00000  Uiso   1.00
H288   H     0.42963   0.06261   0.28239   0.00000  Uiso   1.00
H289   H     0.42053   0.16792   0.30228   0.00000  Uiso   1.00
H290   H     0.56070   0.52238   0.03273   0.00000  Uiso   1.00
H291   H     0.64785   0.51072  -0.00432   0.00000  Uiso   1.00
H292   H     0.52321   0.42162  -0.03596   0.00000  Uiso   1.00
H293   H     0.42030   0.23147   0.52551   0.00000  Uiso   1.00
H294   H     0.36899   0.18391   0.44344   0.00000  Uiso   1.00
H295   H     0.36392   0.28823   0.48460   0.00000  Uiso   1.00
H296   H    -0.02061   0.31985   0.40570   0.00000  Uiso   1.00
H297   H     0.06095   0.28962   0.44515   0.00000  Uiso   1.00
H298   H    -0.00061   0.32969   0.49285   0.00000  Uiso   1.00
H299   H     0.31316   0.47934   0.52065   0.00000  Uiso   1.00
H300   H     0.22555   0.34803   0.50223   0.00000  Uiso   1.00
H301   H     0.35258   0.40464   0.48271   0.00000  Uiso   1.00
H302   H     0.20851   0.39819   0.64942   0.00000  Uiso   1.00
H303   H     0.30723   0.52446   0.65170   0.00000  Uiso   1.00
H304   H     0.32080   0.45410   0.71038   0.00000  Uiso   1.00
H305   H     0.25616   0.25186   0.64212   0.00000  Uiso   1.00
H306   H     0.36871   0.27592   0.62152   0.00000  Uiso   1.00
H307   H     0.26558   0.22770   0.55798   0.00000  Uiso   1.00
H308   H     0.31190   0.20699   0.34393   0.00000  Uiso   1.00
H309   H     0.27800   0.25763   0.28528   0.00000  Uiso   1.00
H310   H     0.29086   0.30543   0.37865   0.00000  Uiso   1.00
H311   H     0.55037   0.53198   0.31880   0.00000  Uiso   1.00
H312   H     0.45477   0.52342   0.37727   0.00000  Uiso   1.00
H313   H     0.41358   0.47259   0.28738   0.00000  Uiso   1.00
H314   H     0.48991   0.31563   0.86482   0.00000  Uiso   1.00
H315   H     0.37601   0.26051   0.80761   0.00000  Uiso   1.00
H316   H     0.43715   0.37967   0.85142   0.00000  Uiso   1.00
H317   H     0.51792   0.20556   0.75277   0.00000  Uiso   1.00
H318   H     0.61281   0.28851   0.70749   0.00000  Uiso   1.00
H319   H     0.48329   0.22650   0.68056   0.00000  Uiso   1.00
H320   H     0.54478   0.61959   0.11583   0.00000  Uiso   1.00
H321   H     0.62587   0.73002   0.17303   0.00000  Uiso   1.00
H322   H     0.67292   0.67497   0.10959   0.00000  Uiso   1.00
H323   H     0.48076   0.73150  -0.01801   0.00000  Uiso   1.00
H324   H     0.50865   0.81217   0.05841   0.00000  Uiso   1.00
H325   H     0.43592   0.67636   0.05371   0.00000  Uiso   1.00
H326   H     0.77196   0.88169   0.04669   0.00000  Uiso   1.00
H327   H     0.72106   0.92263   0.11457   0.00000  Uiso   1.00
H328   H     0.67422   0.90184   0.02428   0.00000  Uiso   1.00
H329   H     0.53854   0.81290   0.16463   0.00000  Uiso   1.00
H330   H     0.47744   0.72676   0.21438   0.00000  Uiso   1.00
H331   H     0.56222   0.85735   0.24942   0.00000  Uiso   1.00
H332   H     0.38792   0.95024   0.16753   0.00000  Uiso   1.00
H333   H     0.47672   0.94476   0.13358   0.00000  Uiso   1.00
H334   H     0.49115   0.99476   0.22219   0.00000  Uiso   1.00
H335   H     0.21637   0.68032   0.35304   0.00000  Uiso   1.00
H336   H     0.21942   0.79672   0.38145   0.00000  Uiso   1.00
H337   H     0.27751   0.75459   0.43151   0.00000  Uiso   1.00
H338   H     0.50246   0.75834   0.34461   0.00000  Uiso   1.00
H339   H     0.37957   0.65964   0.30664   0.00000  Uiso   1.00
H340   H     0.40950   0.69926   0.39430   0.00000  Uiso   1.00
H341   H     0.40423   0.66985   0.54251   0.00000  Uiso   1.00
H342   H     0.39235   0.76814   0.58404   0.00000  Uiso   1.00
H343   H     0.31992   0.64993   0.60738   0.00000  Uiso   1.00
H344   H     0.59249   0.92867   0.72242   0.00000  Uiso   1.00
H345   H     0.49135   0.85087   0.76270   0.00000  Uiso   1.00
H346   H     0.46436   0.88201   0.68902   0.00000  Uiso   1.00
H347   H     0.96367   0.28985   0.19972   0.00000  Uiso   1.00
H348   H     0.99424   0.35900   0.14473   0.00000  Uiso   1.00
H349   H     1.05994   0.30047   0.15363   0.00000  Uiso   1.00
H350   H     0.70923   1.06367   0.06628   0.00000  Uiso   1.00
H351   H     0.74809   1.18265   0.10621   0.00000  Uiso   1.00
H352   H     0.74977   1.10180   0.15496   0.00000  Uiso   1.00
H353   H     0.92288   1.05385   0.13610   0.00000  Uiso   1.00
H354   H     1.01877   1.13326   0.09098   0.00000  Uiso   1.00
H355   H     0.90973   1.03206   0.04695   0.00000  Uiso   1.00
H356   H     0.50868   0.13672   0.19467   0.00000  Uiso   1.00
H357   H     0.59465   0.14769   0.14365   0.00000  Uiso   1.00
H358   H     0.60781   0.25430   0.19035   0.00000  Uiso   1.00
H359   H     0.65081   0.02544   0.22160   0.00000  Uiso   1.00
H360   H     0.62949   0.04851   0.30813   0.00000  Uiso   1.00
H361   H     0.74363   0.09181   0.28419   0.00000  Uiso   1.00
H362   H     0.86548   0.29807   0.29291   0.00000  Uiso   1.00
H363   H     0.82204   0.37195   0.27270   0.00000  Uiso   1.00
H364   H     0.80309   0.27114   0.20672   0.00000  Uiso   1.00
H365   H     0.94469   0.40332  -0.03408   0.00000  Uiso   1.00
H366   H     1.03501   0.39460   0.02512   0.00000  Uiso   1.00
H367   H     0.92386   0.38528   0.04910   0.00000  Uiso   1.00
H368   H     0.74139   0.12161   0.89149   0.00000  Uiso   1.00
H369   H     0.73378   0.22457   0.93717   0.00000  Uiso   1.00
H370   H     0.70280   0.12396   0.97151   0.00000  Uiso   1.00
H371   H     0.56537  -0.14471   0.47278   0.00000  Uiso   1.00
H372   H     0.62005  -0.08028   0.40956   0.00000  Uiso   1.00
H373   H     0.68049  -0.02782   0.49211   0.00000  Uiso   1.00
H374   H     0.79818  -0.07027   0.37760   0.00000  Uiso   1.00
H375   H     0.82762  -0.15607   0.39066   0.00000  Uiso   1.00
H376   H     0.88038  -0.04572   0.45524   0.00000  Uiso   1.00
H377   H     0.96768  -0.00368   0.55578   0.00000  Uiso   1.00
H378   H     0.87124  -0.01311   0.60140   0.00000  Uiso   1.00
H379   H     0.99991   0.06848   0.63876   0.00000  Uiso   1.00
H380   H     0.64612   0.66931   0.39282   0.00000  Uiso   1.00
H381   H     0.61427   0.72377   0.34579   0.00000  Uiso   1.00
H382   H     0.54546   0.68386   0.41262   0.00000  Uiso   1.00
H383   H     0.66291   0.24132   0.53409   0.00000  Uiso   1.00
H384   H     0.71145   0.29241   0.62330   0.00000  Uiso   1.00
H385   H     0.57600   0.22907   0.58899   0.00000  Uiso   1.00
H386   H     0.47777  -0.03630   0.61474   0.00000  Uiso   1.00
H387   H     0.47595   0.07538   0.64968   0.00000  Uiso   1.00
H388   H     0.57205   0.06710   0.68983   0.00000  Uiso   1.00
H389   H     0.64721   0.39655   0.05084   0.00000  Uiso   1.00
H390   H     0.58627   0.43512   0.11105   0.00000  Uiso   1.00
H391   H     0.62422   0.35499   0.12709   0.00000  Uiso   1.00
H392   H     0.68912   0.52173   0.24969   0.00000  Uiso   1.00
H393   H     0.67599   0.60309   0.20322   0.00000  Uiso   1.00
H394   H     0.79080   0.64492   0.25670   0.00000  Uiso   1.00
H395   H     0.54539   0.30755   0.27791   0.00000  Uiso   1.00
H396   H     0.53986   0.39563   0.24087   0.00000  Uiso   1.00
H397   H     0.42874   0.27393   0.23087   0.00000  Uiso   1.00
H398   H     0.80322   0.44858   0.01125   0.00000  Uiso   1.00
H399   H     0.81057   0.38595  -0.05978   0.00000  Uiso   1.00
H400   H     0.70841   0.40153  -0.05988   0.00000  Uiso   1.00
H401   H     0.98254   0.52575   0.33068   0.00000  Uiso   1.00
H402   H     0.93984   0.46407   0.39522   0.00000  Uiso   1.00
H403   H     1.05619   0.58489   0.41343   0.00000  Uiso   1.00
H404   H     0.81515   0.41771   0.16934   0.00000  Uiso   1.00
H405   H     0.90956   0.54448   0.22133   0.00000  Uiso   1.00
H406   H     0.91494   0.52656   0.14051   0.00000  Uiso   1.00
H407   H     0.98394   0.69319   0.31637   0.00000  Uiso   1.00
H408   H     1.01110   0.76233   0.40028   0.00000  Uiso   1.00
H409   H     0.88850   0.70215   0.35928   0.00000  Uiso   1.00
H410   H     0.74890   0.41714   0.38765   0.00000  Uiso   1.00
H411   H     0.75405   0.46493   0.31823   0.00000  Uiso   1.00
H412   H     0.72108   0.50814   0.39359   0.00000  Uiso   1.00
H413   H     0.79269   0.27748   0.84064   0.00000  Uiso   1.00
H414   H     0.69693   0.22811   0.76840   0.00000  Uiso   1.00
H415   H     0.73144   0.33961   0.82584   0.00000  Uiso   1.00
H416   H     0.84431   0.80632   0.07436   0.00000  Uiso   1.00
H417   H     0.78568   0.70593  -0.00055   0.00000  Uiso   1.00
H418   H     0.91603   0.80382   0.00646   0.00000  Uiso   1.00
H419   H     0.78489   0.71653   0.46792   0.00000  Uiso   1.00
H420   H     0.91537   0.79850   0.47530   0.00000  Uiso   1.00
H421   H     0.86177   0.82353   0.53960   0.00000  Uiso   1.00
H422   H     0.56250   0.57491   0.56048   0.00000  Uiso   1.00
H423   H     0.63165   0.62494   0.49613   0.00000  Uiso   1.00
H424   H     0.50874   0.61677   0.50854   0.00000  Uiso   1.00
H425   H     1.03615   0.81712   0.83196   0.00000  Uiso   1.00
H426   H     0.97927   0.71238   0.85884   0.00000  Uiso   1.00
H427   H     0.94372   0.80572   0.88035   0.00000  Uiso   1.00
H428   H     0.74243   0.80759   0.91120   0.00000  Uiso   1.00
H429   H     0.80242   0.93429   0.94719   0.00000  Uiso   1.00
H430   H     0.84848   0.89743   0.87715   0.00000  Uiso   1.00
H431   H     0.56320   0.93316   0.86400   0.00000  Uiso   1.00
H432   H     0.62834   0.95115   0.94475   0.00000  Uiso   1.00
H433   H     0.52605   0.82711   0.89465   0.00000  Uiso   1.00
loop_
_geom_bond_atom_site_label_1
_geom_bond_atom_site_label_2
_geom_bond_distance
_geom_bond_site_symmetry_2
_ccdc_geom_bond_type
Si1    C52     1.822   .     S
Si1    C63     1.896   .     S
Si1    C53     1.806   1_554 S
Si1    O61     1.599   1_554 S
Si2    C54     1.807   .     S
Si2    C58     1.844   .     S
Si2    C55     1.841   1_545 S
Si2    O86     1.568   1_545 S
Si3    C56     1.804   .     S
Si3    O67     1.580   .     S
Si3    C143    1.755   1_455 S
Si3    O149    1.573   1_455 S
Si4    C57     1.882   .     S
Si4    C59     1.901   .     S
Si4    C60     1.864   .     S
Si4    O68     1.586   .     S
Si5    O61     1.608   .     S
Si5    O73     1.622   .     S
Si5    O137    1.560   1_455 S
Si5    O148    1.578   1_455 S
Si6    C62     1.806   .     S
Si6    C64     1.825   .     S
Si6    C65     1.873   .     S
Si6    O66     1.618   .     S
Si7    O66     1.584   .     S
Si7    O78     1.620   .     S
Si7    O76     1.641   1_554 S
Si7    O111    1.653   1_554 S
Si8    O67     1.619   .     S
Si8    O68     1.586   .     S
Si8    C69     1.806   .     S
Si8    C100    1.835   .     S
Si9    C70     1.777   .     S
Si9    C71     1.882   .     S
Si9    C72     1.801   1_455 S
Si9    O169    1.638   1_455 S
Si10   O73     1.562   .     S
Si10   C74     1.816   .     S
Si10   C75     1.917   .     S
Si10   O109    1.655   .     S
Si11   O76     1.699   .     S
Si11   O87     1.570   .     S
Si11   O155    1.637   1_455 S
Si11   O165    1.628   1_455 S
Si12   C77     1.849   .     S
Si12   O78     1.590   .     S
Si12   O82     1.588   .     S
Si12   O118    1.603   .     S
Si13   C79     1.831   .     S
Si13   C80     1.879   .     S
Si13   C81     1.911   1_455 S
Si13   O175    1.559   1_455 S
Si14   O82     1.582   .     S
Si14   C83     1.842   .     S
Si14   C84     1.917   1_554 S
Si14   C85     1.829   1_554 S
Si15   O86     1.611   .     S
Si15   O90     1.625   .     S
Si15   O179    1.597   1_455 S
Si15   O190    1.564   1_455 S
Si16   O87     1.622   .     S
Si16   C88     1.814   .     S
Si16   C89     1.811   .     S
Si16   O91     1.621   .     S
Si17   O90     1.627   .     S
Si17   O91     1.635   .     S
Si17   C92     1.875   .     S
Si17   C93     1.857   .     S
Si18   O96     1.575   .     S
Si18   O145    1.645   .     S
Si18   C94     1.868   1_545 S
Si18   O123    1.615   1_545 S
Si19   C95     1.907   .     S
Si19   O96     1.603   .     S
Si19   O99     1.613   .     S
Si19   O136    1.608   .     S
Si20   C97     1.798   .     S
Si20   O115    1.620   .     S
Si20   O110    1.647   1_554 S
Si20   O168    1.602   1_554 S
Si21   C98     1.838   .     S
Si21   O99     1.547   .     S
Si21   O105    1.587   .     S
Si21   O157    1.627   .     S
Si22   C101    1.862   .     S
Si22   C102    1.830   .     S
Si22   C103    1.895   .     S
Si22   O112    1.611   .     S
Si23   C104    1.872   .     S
Si23   O105    1.586   .     S
Si23   C106    1.897   .     S
Si23   C154    1.871   .     S
Si24   C107    1.893   .     S
Si24   C108    1.844   .     S
Si24   O113    1.586   .     S
Si24   O166    1.619   .     S
Si25   O109    1.649   .     S
Si25   O110    1.640   .     S
Si25   O111    1.642   .     S
Si25   O125    1.650   .     S
Si26   O112    1.550   .     S
Si26   O113    1.559   .     S
Si26   O126    1.619   .     S
Si26   O158    1.591   .     S
Si27   C114    1.891   .     S
Si27   O115    1.563   .     S
Si27   C116    1.859   .     S
Si27   C117    1.813   .     S
Si28   O118    1.584   .     S
Si28   C119    1.853   .     S
Si28   C120    1.850   .     S
Si28   O121    1.634   .     S
Si29   O121    1.621   .     S
Si29   C122    1.871   .     S
Si29   O123    1.619   .     S
Si29   C124    1.840   .     S
Si30   O125    1.660   .     S
Si30   O126    1.600   .     S
Si30   O128    1.597   .     S
Si30   O186    1.655   .     S
Si31   C127    1.856   .     S
Si31   O128    1.627   .     S
Si31   C129    1.876   .     S
Si31   O182    1.613   .     S
Si32   C130    1.888   .     S
Si32   O138    1.594   .     S
Si32   C131    1.806   1_545 S
Si32   C132    1.883   1_545 S
Si33   C133    1.898   .     S
Si33   C134    1.905   .     S
Si33   C135    1.852   .     S
Si33   O136    1.588   .     S
Si34   O138    1.548   .     S
Si34   C139    1.865   .     S
Si34   O137    1.599   1_554 S
Si34   C140    1.897   1_554 S
Si35   C141    1.861   .     S
Si35   C142    1.865   .     S
Si35   C144    1.874   1_545 S
Si35   O181    1.604   1_545 S
Si36   O145    1.620   .     S
Si36   C146    1.896   .     S
Si36   C147    1.930   .     S
Si36   O150    1.658   .     S
Si37   O148    1.582   .     S
Si37   O151    1.638   .     S
Si37   O188    1.660   1_545 S
Si37   O193    1.639   1_545 S
Si38   O149    1.629   .     S
Si38   O150    1.612   .     S
Si38   O151    1.703   .     S
Si38   O164    1.661   .     S
Si39   C152    1.872   .     S
Si39   C153    1.865   .     S
Si39   C160    1.875   .     S
Si39   O172    1.595   .     S
Si40   C156    1.814   .     S
Si40   O173    1.578   .     S
Si40   O155    1.599   1_554 S
Si40   O167    1.644   1_554 S
Si41   O157    1.634   .     S
Si41   O158    1.632   .     S
Si41   O170    1.612   .     S
Si41   O176    1.643   .     S
Si42   C159    1.825   .     S
Si42   C161    1.840   .     S
Si42   C162    1.870   .     S
Si42   O177    1.601   .     S
Si43   C163    1.827   .     S
Si43   O164    1.632   .     S
Si43   O165    1.573   .     S
Si43   O171    1.616   .     S
Si44   O166    1.574   .     S
Si44   O167    1.567   .     S
Si44   O168    1.604   .     S
Si44   O183    1.606   .     S
Si45   O169    1.651   .     S
Si45   O170    1.563   .     S
Si45   O171    1.635   .     S
Si45   O184    1.652   .     S
Si46   O172    1.586   .     S
Si46   O173    1.670   .     S
Si46   C174    1.869   .     S
Si46   O175    1.630   .     S
Si47   O176    1.577   .     S
Si47   O177    1.558   .     S
Si47   C178    1.854   .     S
Si47   O179    1.615   .     S
Si48   C180    1.841   .     S
Si48   O181    1.583   .     S
Si48   O182    1.583   .     S
Si48   O191    1.623   .     S
Si49   O183    1.540   .     S
Si49   O184    1.626   .     S
Si49   C185    1.912   .     S
Si49   O192    1.612   .     S
Si50   O186    1.626   .     S
Si50   C187    1.910   .     S
Si50   O188    1.631   .     S
Si50   C189    1.959   .     S
Si51   O190    1.540   .     S
Si51   O191    1.586   .     S
Si51   O192    1.587   .     S
Si51   O193    1.657   .     S
C52    H194    1.085   .     S
C52    H195    1.069   .     S
C52    H196    1.099   .     S
C53    H197    1.088   .     S
C53    H198    1.095   .     S
C53    H199    1.067   .     S
C53    Si1     1.806   1_556 S
C54    H200    1.113   .     S
C54    H201    1.053   .     S
C54    H202    1.093   .     S
C55    H203    1.151   .     S
C55    H204    1.080   .     S
C55    H205    1.104   .     S
C55    Si2     1.841   1_565 S
C56    H206    1.154   .     S
C56    H207    1.065   .     S
C56    H208    1.150   .     S
C57    H209    1.152   .     S
C57    H210    1.084   .     S
C57    H211    1.139   .     S
C58    H212    1.106   .     S
C58    H213    1.122   .     S
C58    H214    1.063   .     S
C59    H215    1.042   .     S
C59    H216    1.095   .     S
C59    H217    1.125   .     S
C60    H218    1.136   .     S
C60    H219    1.170   .     S
C60    H220    1.073   .     S
O61    Si1     1.599   1_556 S
C62    H221    1.099   .     S
C62    H222    1.150   .     S
C62    H223    1.140   .     S
C63    H224    1.165   .     S
C63    H225    1.137   .     S
C63    H226    1.122   .     S
C64    H227    1.100   .     S
C64    H228    1.093   .     S
C64    H229    1.047   .     S
C65    H230    1.097   .     S
C65    H231    1.116   .     S
C65    H232    1.105   .     S
C69    H233    1.154   .     S
C69    H234    1.150   .     S
C69    H235    1.162   .     S
C70    H236    1.164   .     S
C70    H237    1.127   .     S
C70    H238    1.118   .     S
C71    H239    1.111   .     S
C71    H240    1.069   .     S
C71    H241    1.118   .     S
C72    H242    1.078   .     S
C72    H243    1.141   .     S
C72    H244    1.068   .     S
C72    Si9     1.801   1_655 S
C74    H245    1.078   .     S
C74    H246    1.096   .     S
C74    H247    1.098   .     S
C75    H248    1.110   .     S
C75    H249    1.122   .     S
C75    H250    1.137   .     S
O76    Si7     1.641   1_556 S
C77    H251    1.149   .     S
C77    H252    1.134   .     S
C77    H253    1.140   .     S
C79    H254    1.136   .     S
C79    H255    1.123   .     S
C79    H256    1.068   .     S
C80    H257    1.118   .     S
C80    H258    1.104   .     S
C80    H259    1.051   .     S
C81    H260    1.122   .     S
C81    H261    1.139   .     S
C81    H262    1.074   .     S
C81    Si13    1.911   1_655 S
C83    H263    1.080   .     S
C83    H264    1.097   .     S
C83    H265    1.119   .     S
C84    H266    1.118   .     S
C84    H267    1.086   .     S
C84    H268    1.095   .     S
C84    Si14    1.917   1_556 S
C85    H269    1.110   .     S
C85    H270    1.110   .     S
C85    H271    1.100   .     S
C85    Si14    1.829   1_556 S
O86    Si2     1.568   1_565 S
C88    H272    1.103   .     S
C88    H273    1.123   .     S
C88    H274    1.052   .     S
C89    H275    1.099   .     S
C89    H276    1.108   .     S
C89    H277    1.078   .     S
C92    H278    1.067   .     S
C92    H279    1.121   .     S
C92    H280    1.094   .     S
C93    H281    1.092   .     S
C93    H282    1.129   .     S
C93    H283    1.090   .     S
C94    H284    1.081   .     S
C94    H285    1.084   .     S
C94    H286    1.157   .     S
C94    Si18    1.868   1_565 S
C95    H287    1.126   .     S
C95    H288    1.064   .     S
C95    H289    1.092   .     S
C97    H290    1.126   .     S
C97    H291    1.069   .     S
C97    H292    1.091   .     S
C98    H293    1.128   .     S
C98    H294    1.084   .     S
C98    H295    1.132   .     S
C100   H296    1.127   .     S
C100   H297    1.114   .     S
C100   H298    1.015   .     S
C101   H299    1.085   .     S
C101   H300    1.088   .     S
C101   H301    1.089   .     S
C102   H302    1.119   .     S
C102   H303    1.111   .     S
C102   H304    1.138   .     S
C103   H305    1.043   .     S
C103   H306    1.072   .     S
C103   H307    1.086   .     S
C104   H308    1.117   .     S
C104   H309    1.148   .     S
C104   H310    1.130   .     S
C106   H311    1.122   .     S
C106   H312    1.152   .     S
C106   H313    1.186   .     S
C107   H314    1.068   .     S
C107   H315    1.091   .     S
C107   H316    1.078   .     S
C108   H317    1.109   .     S
C108   H318    1.106   .     S
C108   H319    1.022   .     S
O110   Si20    1.647   1_556 S
O111   Si7     1.653   1_556 S
C114   H320    1.068   .     S
C114   H321    1.096   .     S
C114   H322    1.119   .     S
C116   H323    1.091   .     S
C116   H324    1.075   .     S
C116   H325    1.109   .     S
C117   H326    1.084   .     S
C117   H327    1.095   .     S
C117   H328    1.174   .     S
C119   H329    1.066   .     S
C119   H330    1.072   .     S
C119   H331    1.134   .     S
C120   H332    1.094   .     S
C120   H333    1.093   .     S
C120   H334    1.057   .     S
C122   H335    1.080   .     S
C122   H336    1.152   .     S
C122   H337    1.088   .     S
O123   Si18    1.615   1_565 S
C124   H338    1.112   .     S
C124   H339    1.084   .     S
C124   H340    1.084   .     S
C127   H341    1.112   .     S
C127   H342    1.137   .     S
C127   H343    1.127   .     S
C129   H344    1.084   .     S
C129   H345    1.115   .     S
C129   H346    1.138   .     S
C130   H347    1.059   .     S
C130   H348    1.089   .     S
C130   H349    1.096   .     S
C131   H350    1.094   .     S
C131   H351    1.105   .     S
C131   H352    1.159   .     S
C131   Si32    1.806   1_565 S
C132   H353    1.114   .     S
C132   H354    1.068   .     S
C132   H355    1.110   .     S
C132   Si32    1.883   1_565 S
C133   H356    1.091   .     S
C133   H357    1.102   .     S
C133   H358    1.067   .     S
C134   H359    1.121   .     S
C134   H360    1.071   .     S
C134   H361    1.117   .     S
C135   H362    1.110   .     S
C135   H363    1.168   .     S
C135   H364    1.106   .     S
O137   Si5     1.560   1_655 S
O137   Si34    1.599   1_556 S
C139   H365    1.136   .     S
C139   H366    1.149   .     S
C139   H367    1.084   .     S
C140   H368    1.093   .     S
C140   H369    1.073   .     S
C140   H370    1.083   .     S
C140   Si34    1.897   1_556 S
C141   H371    1.120   .     S
C141   H372    1.117   .     S
C141   H373    1.051   .     S
C142   H374    1.124   .     S
C142   H375    1.104   .     S
C142   H376    1.079   .     S
C143   H377    1.090   .     S
C143   H378    1.043   .     S
C143   H379    1.112   .     S
C143   Si3     1.755   1_655 S
C144   H380    1.069   .     S
C144   H381    1.080   .     S
C144   H382    1.071   .     S
C144   Si35    1.874   1_565 S
C146   H383    1.098   .     S
C146   H384    1.117   .     S
C146   H385    1.135   .     S
C147   H386    1.123   .     S
C147   H387    1.109   .     S
C147   H388    1.156   .     S
O148   Si5     1.578   1_655 S
O149   Si3     1.573   1_655 S
C152   H389    1.100   .     S
C152   H390    1.135   .     S
C152   H391    1.107   .     S
C153   H392    1.102   .     S
C153   H393    1.175   .     S
C153   H394    1.090   .     S
C154   H395    1.109   .     S
C154   H396    1.127   .     S
C154   H397    1.082   .     S
O155   Si11    1.637   1_655 S
O155   Si40    1.599   1_556 S
C156   H398    1.111   .     S
C156   H399    1.046   .     S
C156   H400    1.080   .     S
C159   H401    1.135   .     S
C159   H402    1.103   .     S
C159   H403    1.105   .     S
C160   H404    1.163   .     S
C160   H405    1.129   .     S
C160   H406    1.055   .     S
C161   H407    1.128   .     S
C161   H408    1.096   .     S
C161   H409    1.099   .     S
C162   H410    1.112   .     S
C162   H411    1.092   .     S
C162   H412    1.104   .     S
C163   H413    1.099   .     S
C163   H414    1.137   .     S
C163   H415    1.098   .     S
O165   Si11    1.628   1_655 S
O167   Si40    1.644   1_556 S
O168   Si20    1.602   1_556 S
O169   Si9     1.638   1_655 S
C174   H416    1.120   .     S
C174   H417    1.104   .     S
C174   H418    1.126   .     S
O175   Si13    1.559   1_655 S
C178   H419    1.100   .     S
C178   H420    1.071   .     S
C178   H421    1.134   .     S
O179   Si15    1.597   1_655 S
C180   H422    1.123   .     S
C180   H423    1.095   .     S
C180   H424    1.145   .     S
O181   Si35    1.604   1_565 S
C185   H425    1.086   .     S
C185   H426    1.134   .     S
C185   H427    1.116   .     S
C187   H428    1.105   .     S
C187   H429    1.106   .     S
C187   H430    1.113   .     S
O188   Si37    1.660   1_565 S
C189   H431    1.085   .     S
C189   H432    1.116   .     S
C189   H433    1.088   .     S
O190   Si15    1.564   1_655 S
O193   Si37    1.639   1_565 S
