data_333-15-11-10-15-30-11
_audit_creation_date              2025-03-07
_audit_creation_method            'Materials Studio'
_symmetry_space_group_name_H-M    'P1'
_symmetry_Int_Tables_number       1
_symmetry_cell_setting            triclinic
loop_
_symmetry_equiv_pos_as_xyz
  x,y,z
_cell_length_a                    16.1909
_cell_length_b                    16.3114
_cell_length_c                    18.5075
_cell_angle_alpha                 88.5762
_cell_angle_beta                  93.6491
_cell_angle_gamma                 118.7314
loop_
_atom_site_label
_atom_site_type_symbol
_atom_site_fract_x
_atom_site_fract_y
_atom_site_fract_z
_atom_site_U_iso_or_equiv
_atom_site_adp_type
_atom_site_occupancy
Si1    Si    0.17673  -0.07353   0.11581   0.00000  Uiso   1.00
Si2    Si    0.17470   0.24904  -0.02075   0.00000  Uiso   1.00
Si3    Si    0.15408  -0.05809   0.41329   0.00000  Uiso   1.00
Si4    Si   -0.02949   0.15806   0.59999   0.00000  Uiso   1.00
Si5    Si    0.13259  -0.00187   0.78459   0.00000  Uiso   1.00
Si6    Si   -0.00056   0.24404   0.89923   0.00000  Uiso   1.00
Si7    Si    0.12326   0.17352   0.70579   0.00000  Uiso   1.00
Si8    Si    0.24853   0.41934   0.07931   0.00000  Uiso   1.00
Si9    Si    0.19404   0.53214  -0.02738   0.00000  Uiso   1.00
Si10   Si    0.12507   0.31646   0.51995   0.00000  Uiso   1.00
Si11   Si   -0.03096   0.48329   0.54047   0.00000  Uiso   1.00
Si12   Si    0.11922   0.35572   0.77656   0.00000  Uiso   1.00
Si13   Si    0.04233   0.53991   0.88152   0.00000  Uiso   1.00
Si14   Si    0.12642   0.51316   0.66928   0.00000  Uiso   1.00
Si15   Si    0.20755   0.68813   0.06197   0.00000  Uiso   1.00
Si16   Si    0.18251   0.83686  -0.02499   0.00000  Uiso   1.00
Si17   Si    0.07612   0.58523   0.40224   0.00000  Uiso   1.00
Si18   Si    0.04949   0.86329   0.55198   0.00000  Uiso   1.00
Si19   Si    0.17680   0.69251   0.77902   0.00000  Uiso   1.00
Si20   Si    0.00312   0.85297   0.89880   0.00000  Uiso   1.00
Si21   Si    0.16114   0.85421   0.69233   0.00000  Uiso   1.00
Si22   Si    0.54766  -0.01897   0.11476   0.00000  Uiso   1.00
Si23   Si    0.51164   0.14229   0.04659   0.00000  Uiso   1.00
Si24   Si    0.32198   0.24185   0.65606   0.00000  Uiso   1.00
Si25   Si    0.52471   0.06230   0.33689   0.00000  Uiso   1.00
Si26   Si    0.46727   0.03352   0.79338   0.00000  Uiso   1.00
Si27   Si    0.49353   0.31072   0.09567   0.00000  Uiso   1.00
Si28   Si    0.27565   0.49137   0.58676   0.00000  Uiso   1.00
Si29   Si    0.30757   0.50494   0.86093   0.00000  Uiso   1.00
Si30   Si    0.38142   0.78983   0.16835   0.00000  Uiso   1.00
Si31   Si    0.52372   0.86317  -0.03159   0.00000  Uiso   1.00
Si32   Si    0.39929   0.58175   0.45937   0.00000  Uiso   1.00
Si33   Si    0.29757   0.83648   0.59887   0.00000  Uiso   1.00
Si34   Si    0.61239   0.78108   0.76589   0.00000  Uiso   1.00
Si35   Si    0.33904   0.85316   0.87026   0.00000  Uiso   1.00
Si36   Si    0.86551   0.04075   0.08180   0.00000  Uiso   1.00
Si37   Si    0.68826   0.11759   0.23587   0.00000  Uiso   1.00
Si38   Si    0.86239   0.21561   0.01838   0.00000  Uiso   1.00
Si39   Si    0.84537   0.02787   0.46440   0.00000  Uiso   1.00
Si40   Si    0.85520   0.17079   0.34982   0.00000  Uiso   1.00
Si41   Si    0.86465   0.06300   0.82659   0.00000  Uiso   1.00
Si42   Si    0.70218   0.25673   0.97926   0.00000  Uiso   1.00
Si43   Si    0.80951   0.13612   0.69450   0.00000  Uiso   1.00
Si44   Si    0.83548   0.30684   0.45320   0.00000  Uiso   1.00
Si45   Si    0.75041   0.41075   0.35787   0.00000  Uiso   1.00
Si46   Si    0.78641   0.47506   0.59140   0.00000  Uiso   1.00
Si47   Si    0.80184   0.68756   0.07487   0.00000  Uiso   1.00
Si48   Si    0.74059   0.89655   0.18474   0.00000  Uiso   1.00
Si49   Si    0.86002   0.87656  -0.00198   0.00000  Uiso   1.00
Si50   Si    0.85704   0.68825   0.80170   0.00000  Uiso   1.00
Si51   Si    0.71279   0.90216   0.89748   0.00000  Uiso   1.00
C52    C     0.25261   0.04099   0.16239   0.00000  Uiso   1.00
C53    C     0.15104   0.82498   0.17898   0.00000  Uiso   1.00
C54    C     0.06361  -0.08175   0.10231   0.00000  Uiso   1.00
C55    C     0.13392   0.13311   0.02240   0.00000  Uiso   1.00
C56    C     0.23511   0.24554   0.89814   0.00000  Uiso   1.00
C57    C     0.22652   0.06864   0.42661   0.00000  Uiso   1.00
C58    C     0.06028   0.90766   0.33867   0.00000  Uiso   1.00
C59    C     0.22873   0.04333   0.85501   0.00000  Uiso   1.00
O60    O     0.08832   0.26553   0.95265   0.00000  Uiso   1.00
O61    O     0.03675   0.13225   0.65009   0.00000  Uiso   1.00
O62    O     0.11883   0.08618   0.75342   0.00000  Uiso   1.00
C63    C     0.20777   0.38251   0.17558   0.00000  Uiso   1.00
O64    O     0.23902   0.32774   0.03995   0.00000  Uiso   1.00
C65    C     0.37336   0.50232   0.08677   0.00000  Uiso   1.00
O66    O     0.18944   0.45876   0.03376   0.00000  Uiso   1.00
O67    O     0.03365   0.25521   0.56336   0.00000  Uiso   1.00
C68    C     0.16614   0.24178   0.48395   0.00000  Uiso   1.00
C69    C     0.10121   0.38234   0.44429   0.00000  Uiso   1.00
O70    O     0.03736   0.31376   0.83472   0.00000  Uiso   1.00
O71    O     0.11873   0.26000   0.74643   0.00000  Uiso   1.00
O72    O     0.09995   0.49511   0.92377   0.00000  Uiso   1.00
C73    C     0.96392   0.55692   0.93896   0.00000  Uiso   1.00
C74    C     0.95300   0.45830   0.80802   0.00000  Uiso   1.00
O75    O     0.03270   0.49575   0.61726   0.00000  Uiso   1.00
O76    O     0.10062   0.41505   0.71218   0.00000  Uiso   1.00
C77    C     0.11994   0.60414   0.12963   0.00000  Uiso   1.00
O78    O     0.22657   0.62749   0.00690   0.00000  Uiso   1.00
O79    O     0.16127   0.73954   0.01514   0.00000  Uiso   1.00
O80    O     0.20991   0.91077   0.04007   0.00000  Uiso   1.00
O81    O     0.03579   0.55864   0.48169   0.00000  Uiso   1.00
C82    C     0.03701   0.49468   0.33570   0.00000  Uiso   1.00
C83    C     0.04385   0.67143   0.36188   0.00000  Uiso   1.00
O84    O     0.12198   0.88842   0.48686   0.00000  Uiso   1.00
C85    C     1.04576   0.96802   0.58566   0.00000  Uiso   1.00
C86    C     0.92488   0.77260   0.51380   0.00000  Uiso   1.00
O87    O     0.11244   0.63305   0.84241   0.00000  Uiso   1.00
O88    O     0.16557   0.61450   0.71683   0.00000  Uiso   1.00
O89    O     0.08769   0.83010   0.93320   0.00000  Uiso   1.00
O90    O     0.04174   0.92430   0.82903   0.00000  Uiso   1.00
O91    O     0.08641   0.82384   0.62160   0.00000  Uiso   1.00
O92    O     0.14228   0.76684   0.74644   0.00000  Uiso   1.00
O93    O     0.16716   0.94455   0.72998   0.00000  Uiso   1.00
O94    O     0.51705   0.05758   0.09389   0.00000  Uiso   1.00
C95    C     0.39472   0.09460   0.99503   0.00000  Uiso   1.00
C96    C     0.24510  -0.08451   0.37619   0.00000  Uiso   1.00
C97    C     0.33512   0.13799   0.64181   0.00000  Uiso   1.00
C98    C     0.40073   0.31787   0.72932   0.00000  Uiso   1.00
C99    C     0.37402   0.31269   0.57441   0.00000  Uiso   1.00
O100   O     0.21674   0.21919   0.66339   0.00000  Uiso   1.00
C101   C     0.43348   0.05947   0.26527   0.00000  Uiso   1.00
C102   C     0.48627  -0.05753   0.36552   0.00000  Uiso   1.00
C103   C     0.53073   0.12500   0.42145   0.00000  Uiso   1.00
C104   C     0.46902   0.14342   0.81205   0.00000  Uiso   1.00
C105   C     0.48617   1.03079   0.69316   0.00000  Uiso   1.00
C106   C     0.37463   0.26871   0.12506   0.00000  Uiso   1.00
O107   O     0.52293   0.22572   0.09613   0.00000  Uiso   1.00
C108   C     0.49153   0.34677   0.00103   0.00000  Uiso   1.00
C109   C     0.58412   0.41014   0.15310   0.00000  Uiso   1.00
O110   O     0.20696   0.38431   0.57305   0.00000  Uiso   1.00
C111   C     0.36986   0.49866   0.65489   0.00000  Uiso   1.00
O112   O     0.21225   0.53206   0.61836   0.00000  Uiso   1.00
O113   O     0.21754   0.42168   0.81709   0.00000  Uiso   1.00
C114   C     0.39741   0.47463   0.90034   0.00000  Uiso   1.00
O115   O     0.27811   0.54407   0.92532   0.00000  Uiso   1.00
O116   O     0.30726   0.76323   0.09944   0.00000  Uiso   1.00
C117   C     0.41738   0.69689   0.18579   0.00000  Uiso   1.00
O118   O     0.46493   0.89679   0.15898   0.00000  Uiso   1.00
C119   C     0.32226   0.77996   0.25548   0.00000  Uiso   1.00
C120   C     0.48495   0.74009  -0.01080   0.00000  Uiso   1.00
O121   O     0.56067   0.93255   0.03988   0.00000  Uiso   1.00
O122   O     0.31750   0.54569   0.51552   0.00000  Uiso   1.00
C123   C     0.46062   0.71041   0.45302   0.00000  Uiso   1.00
C124   C     0.49040   0.54838   0.48581   0.00000  Uiso   1.00
C125   C     0.35267   0.53088   0.36637   0.00000  Uiso   1.00
C126   C     0.20372   0.63575   0.40451   0.00000  Uiso   1.00
C127   C     0.18783   0.72976   0.56059   0.00000  Uiso   1.00
C128   C     0.36011   0.78275   0.65179   0.00000  Uiso   1.00
C129   C     0.37034   0.91754   0.53283   0.00000  Uiso   1.00
O130   O     0.25759   0.88100   0.65462   0.00000  Uiso   1.00
C131   C     0.35090   0.59832   0.80010   0.00000  Uiso   1.00
C132   C     0.58433   0.66114   0.80320   0.00000  Uiso   1.00
C133   C     0.63240   0.79145   0.66471   0.00000  Uiso   1.00
C134   C     0.51494   0.80187   0.77398   0.00000  Uiso   1.00
O135   O     0.27964   0.75821   0.82032   0.00000  Uiso   1.00
O136   O     0.43159   0.85871   0.92095   0.00000  Uiso   1.00
O137   O     0.38026   0.93982   0.81711   0.00000  Uiso   1.00
O138   O     0.26980   0.86679   0.92317   0.00000  Uiso   1.00
C139   C     0.97532   0.12095   0.13614   0.00000  Uiso   1.00
O140   O     0.63836   0.03203   0.17372   0.00000  Uiso   1.00
C141   C     0.70319   0.21753   0.18106   0.00000  Uiso   1.00
O142   O     0.62594   0.10394   0.30303   0.00000  Uiso   1.00
O143   O     0.92227   0.25262   0.94563   0.00000  Uiso   1.00
O144   O     0.84101   0.10754   0.03234   0.00000  Uiso   1.00
C145   C     0.93261   0.29726   0.09383   0.00000  Uiso   1.00
O146   O     0.90006   0.08160   0.53658   0.00000  Uiso   1.00
C147   C     0.73683   0.92098   0.49426   0.00000  Uiso   1.00
C148   C     0.91082   0.97916   0.41666   0.00000  Uiso   1.00
C149   C     0.97354   0.18926   0.32196   0.00000  Uiso   1.00
O150   O     0.78854   0.13645   0.27394   0.00000  Uiso   1.00
O151   O     0.81979   0.09270   0.41026   0.00000  Uiso   1.00
O152   O     0.95507   0.13867   0.87137   0.00000  Uiso   1.00
C153   C     0.88301   0.98107   0.77626   0.00000  Uiso   1.00
C154   C     0.57654   0.04809   0.84455   0.00000  Uiso   1.00
C155   C     0.71183   0.30181   0.88753   0.00000  Uiso   1.00
O156   O     0.76145   0.20641   0.99792   0.00000  Uiso   1.00
C157   C     0.73985   0.36366   1.03677   0.00000  Uiso   1.00
O158   O     0.59724   0.18448   0.99218   0.00000  Uiso   1.00
O159   O     0.90443   0.17424   0.65112   0.00000  Uiso   1.00
C160   C     0.71416   0.03281   0.64781   0.00000  Uiso   1.00
O161   O     0.82575   0.11819   0.77710   0.00000  Uiso   1.00
C162   C     0.77626   0.23186   0.69039   0.00000  Uiso   1.00
C163   C     0.76019   0.21101   0.51349   0.00000  Uiso   1.00
O164   O     0.85917   0.26140   0.38622   0.00000  Uiso   1.00
O165   O     0.92643   0.38423   0.50269   0.00000  Uiso   1.00
C166   C     0.81741   0.43211   0.27566   0.00000  Uiso   1.00
C167   C     0.62341   0.35331   0.33396   0.00000  Uiso   1.00
O168   O     0.77863   0.35878   0.42197   0.00000  Uiso   1.00
C169   C     0.78720   0.53539   0.38646   0.00000  Uiso   1.00
O170   O     0.88125   0.50309   0.55257   0.00000  Uiso   1.00
C171   C     0.66859   0.38786   0.54200   0.00000  Uiso   1.00
C172   C     0.78277   0.42422   0.68233   0.00000  Uiso   1.00
C173   C     0.68637   0.60748   0.02563   0.00000  Uiso   1.00
C174   C     0.88479   0.64817   0.04093   0.00000  Uiso   1.00
C175   C     0.79077   0.66233   0.17479   0.00000  Uiso   1.00
C176   C     0.65421   0.80384   0.12507   0.00000  Uiso   1.00
C177   C     0.83792   0.87744   0.21741   0.00000  Uiso   1.00
O178   O     0.78709   0.98496   0.13854   0.00000  Uiso   1.00
C179   C     0.68286   0.90408   0.26847   0.00000  Uiso   1.00
O180   O     0.95278   0.89033   0.95226   0.00000  Uiso   1.00
O181   O     0.83541   0.79568   0.05416   0.00000  Uiso   1.00
O182   O     0.89243   0.97372   0.03664   0.00000  Uiso   1.00
C183   C     0.75139   0.57869   0.82969   0.00000  Uiso   1.00
C184   C     0.77617   0.58321   0.59484   0.00000  Uiso   1.00
C185   C     0.93087   0.65695   0.74947   0.00000  Uiso   1.00
C186   C     0.82988   0.76182   0.73921   0.00000  Uiso   1.00
O187   O     0.92173   0.75308   0.86841   0.00000  Uiso   1.00
O188   O     0.69126   0.85385   0.82037   0.00000  Uiso   1.00
O189   O     0.76640   0.85747   0.95059   0.00000  Uiso   1.00
O190   O     0.79145   1.00663   0.88278   0.00000  Uiso   1.00
O191   O     0.61564   0.89633   0.92219   0.00000  Uiso   1.00
H192   H     0.32682   0.07103   0.15418   0.00000  Uiso   1.00
H193   H     0.24395   0.03407   0.22134   0.00000  Uiso   1.00
H194   H     0.22274   0.08311   0.14056   0.00000  Uiso   1.00
H195   H     0.11231   0.82647   0.22671   0.00000  Uiso   1.00
H196   H     0.21555   0.83758   0.20560   0.00000  Uiso   1.00
H197   H     0.10377   0.76049   0.14972   0.00000  Uiso   1.00
H198   H     0.00667  -0.15291   0.09998   0.00000  Uiso   1.00
H199   H     0.05744  -0.03994   0.05646   0.00000  Uiso   1.00
H200   H     0.05645  -0.04760   0.15185   0.00000  Uiso   1.00
H201   H     0.06358   0.07427  -0.00203   0.00000  Uiso   1.00
H202   H     0.12317   0.13609   0.07877   0.00000  Uiso   1.00
H203   H     0.18576   0.10948   0.02165   0.00000  Uiso   1.00
H204   H     0.17858   0.19779   0.86146   0.00000  Uiso   1.00
H205   H     0.28396   0.22044   0.91606   0.00000  Uiso   1.00
H206   H     0.26525   0.31562   0.87591   0.00000  Uiso   1.00
H207   H     0.18490   0.09562   0.44761   0.00000  Uiso   1.00
H208   H     0.25200   0.10534   0.37445   0.00000  Uiso   1.00
H209   H     0.28986   0.08387   0.45996   0.00000  Uiso   1.00
H210   H     0.08769   0.93682   0.28605   0.00000  Uiso   1.00
H211   H     0.00214   0.92120   0.34793   0.00000  Uiso   1.00
H212   H     0.02449   0.83120   0.32549   0.00000  Uiso   1.00
H213   H     0.26266  -0.00400   0.85701   0.00000  Uiso   1.00
H214   H     0.20790   0.05513   0.90764   0.00000  Uiso   1.00
H215   H     0.28341   0.11489   0.84558   0.00000  Uiso   1.00
H216   H     0.13188   0.32535   0.17689   0.00000  Uiso   1.00
H217   H     0.21341   0.44786   0.20026   0.00000  Uiso   1.00
H218   H     0.25003   0.35852   0.20802   0.00000  Uiso   1.00
H219   H     0.39920   0.57117   0.06507   0.00000  Uiso   1.00
H220   H     0.40845   0.46890   0.05941   0.00000  Uiso   1.00
H221   H     0.40563   0.51053   0.14455   0.00000  Uiso   1.00
H222   H     0.18695   0.20923   0.53405   0.00000  Uiso   1.00
H223   H     0.22937   0.27786   0.44868   0.00000  Uiso   1.00
H224   H     0.10525   0.18172   0.45269   0.00000  Uiso   1.00
H225   H     0.10632   0.44955   0.46030   0.00000  Uiso   1.00
H226   H     0.02601   0.33267   0.42456   0.00000  Uiso   1.00
H227   H     0.15476   0.39570   0.40942   0.00000  Uiso   1.00
H228   H     1.00072   0.57974   0.99232   0.00000  Uiso   1.00
H229   H     0.91254   0.48399   0.94368   0.00000  Uiso   1.00
H230   H     0.93423   0.60026   0.91329   0.00000  Uiso   1.00
H231   H     0.93723   0.38175   0.81837   0.00000  Uiso   1.00
H232   H     0.98144   0.48416   0.75622   0.00000  Uiso   1.00
H233   H     0.88426   0.45649   0.81169   0.00000  Uiso   1.00
H234   H     0.12030   0.63618   0.18339   0.00000  Uiso   1.00
H235   H     0.14139   0.55032   0.13895   0.00000  Uiso   1.00
H236   H     0.04995   0.57438   0.10718   0.00000  Uiso   1.00
H237   H     0.02400   0.51928   0.28298   0.00000  Uiso   1.00
H238   H    -0.02496   0.43084   0.34413   0.00000  Uiso   1.00
H239   H     0.09503   0.48256   0.32651   0.00000  Uiso   1.00
H240   H     0.08888   0.70973   0.32025   0.00000  Uiso   1.00
H241   H     0.04876   0.71896   0.40280   0.00000  Uiso   1.00
H242   H    -0.03014   0.64422   0.34058   0.00000  Uiso   1.00
H243   H     0.98563   0.93822   0.62375   0.00000  Uiso   1.00
H244   H     1.02100   0.99957   0.54108   0.00000  Uiso   1.00
H245   H     1.11259   1.01968   0.61279   0.00000  Uiso   1.00
H246   H     0.86891   0.76529   0.54967   0.00000  Uiso   1.00
H247   H     0.93271   0.71013   0.50410   0.00000  Uiso   1.00
H248   H     0.91647   0.79042   0.45813   0.00000  Uiso   1.00
H249   H     0.39468   0.04151   0.95938   0.00000  Uiso   1.00
H250   H     0.37901   0.14455   0.96477   0.00000  Uiso   1.00
H251   H     0.33993   0.05829   1.03371   0.00000  Uiso   1.00
H252   H     0.23745  -0.07440   0.31594   0.00000  Uiso   1.00
H253   H     0.21489  -0.16394   0.38666   0.00000  Uiso   1.00
H254   H     0.31723  -0.03231   0.39493   0.00000  Uiso   1.00
H255   H     0.28839   0.10452   0.59269   0.00000  Uiso   1.00
H256   H     0.31608   0.09013   0.68942   0.00000  Uiso   1.00
H257   H     0.41102   0.16279   0.63217   0.00000  Uiso   1.00
H258   H     0.46975   0.37169   0.70992   0.00000  Uiso   1.00
H259   H     0.40161   0.27239   0.77739   0.00000  Uiso   1.00
H260   H     0.36587   0.35310   0.75014   0.00000  Uiso   1.00
H261   H     0.45100   0.35771   0.58071   0.00000  Uiso   1.00
H262   H     0.34452   0.35843   0.55839   0.00000  Uiso   1.00
H263   H     0.36260   0.26230   0.52765   0.00000  Uiso   1.00
H264   H     0.37353   0.06263   0.28829   0.00000  Uiso   1.00
H265   H     0.39977  -0.00379   0.23236   0.00000  Uiso   1.00
H266   H     0.46469   0.11468   0.22716   0.00000  Uiso   1.00
H267   H     0.41175  -0.09309   0.37969   0.00000  Uiso   1.00
H268   H     0.52956  -0.06139   0.41059   0.00000  Uiso   1.00
H269   H     0.49564  -0.09714   0.32243   0.00000  Uiso   1.00
H270   H     0.56414   0.10831   0.47440   0.00000  Uiso   1.00
H271   H     0.45693   0.11647   0.42242   0.00000  Uiso   1.00
H272   H     0.58070   0.19718   0.41340   0.00000  Uiso   1.00
H273   H     0.40303   0.14040   0.78643   0.00000  Uiso   1.00
H274   H     0.53606   0.19544   0.78786   0.00000  Uiso   1.00
H275   H     0.47735   0.16535   0.86937   0.00000  Uiso   1.00
H276   H     0.42801   1.02406   0.65661   0.00000  Uiso   1.00
H277   H     0.50061   0.97288   0.68571   0.00000  Uiso   1.00
H278   H     0.55461   1.08766   0.67752   0.00000  Uiso   1.00
H279   H     0.37291   0.33330   0.13976   0.00000  Uiso   1.00
H280   H     0.35915   0.23073   0.17437   0.00000  Uiso   1.00
H281   H     0.31824   0.22970   0.08382   0.00000  Uiso   1.00
H282   H     0.51884   0.42429  -0.01248   0.00000  Uiso   1.00
H283   H     0.41919   0.30132  -0.02408   0.00000  Uiso   1.00
H284   H     0.53511   0.32369  -0.02658   0.00000  Uiso   1.00
H285   H     0.56050   0.46287   0.16860   0.00000  Uiso   1.00
H286   H     0.65000   0.44754   0.12030   0.00000  Uiso   1.00
H287   H     0.60097   0.37630   0.20164   0.00000  Uiso   1.00
H288   H     0.42269   0.48437   0.63790   0.00000  Uiso   1.00
H289   H     0.34430   0.47401   0.70858   0.00000  Uiso   1.00
H290   H     0.41132   0.57928   0.65933   0.00000  Uiso   1.00
H291   H     0.42462   0.44530   0.85937   0.00000  Uiso   1.00
H292   H     0.37106   0.42737   0.94686   0.00000  Uiso   1.00
H293   H     0.44786   0.54114   0.92747   0.00000  Uiso   1.00
H294   H     0.44846   0.69966   0.23938   0.00000  Uiso   1.00
H295   H     0.47116   0.69583   0.14734   0.00000  Uiso   1.00
H296   H     0.35344   0.62946   0.17996   0.00000  Uiso   1.00
H297   H     0.32677   0.84706   0.27466   0.00000  Uiso   1.00
H298   H     0.35713   0.76334   0.30035   0.00000  Uiso   1.00
H299   H     0.24811   0.73153   0.25052   0.00000  Uiso   1.00
H300   H     0.43507   0.72542   0.03135   0.00000  Uiso   1.00
H301   H     0.54446   0.73274   0.00552   0.00000  Uiso   1.00
H302   H     0.45061   0.69402  -0.05851   0.00000  Uiso   1.00
H303   H     0.40368   0.73517   0.44965   0.00000  Uiso   1.00
H304   H     0.50904   0.73495   0.40753   0.00000  Uiso   1.00
H305   H     0.50599   0.74174   0.50578   0.00000  Uiso   1.00
H306   H     0.54521   0.57974   0.44454   0.00000  Uiso   1.00
H307   H     0.46313   0.47246   0.48244   0.00000  Uiso   1.00
H308   H     0.52026   0.57809   0.53661   0.00000  Uiso   1.00
H309   H     0.33684   0.45568   0.36617   0.00000  Uiso   1.00
H310   H     0.39936   0.56711   0.32527   0.00000  Uiso   1.00
H311   H     0.28558   0.53709   0.35347   0.00000  Uiso   1.00
H312   H     0.22510   0.59855   0.44285   0.00000  Uiso   1.00
H313   H     0.23825   0.70620   0.42757   0.00000  Uiso   1.00
H314   H     0.23466   0.64332   0.35295   0.00000  Uiso   1.00
H315   H     0.20900   0.67405   0.55041   0.00000  Uiso   1.00
H316   H     0.15941   0.74701   0.51274   0.00000  Uiso   1.00
H317   H     0.13348   0.69937   0.60108   0.00000  Uiso   1.00
H318   H     0.32108   0.70468   0.64991   0.00000  Uiso   1.00
H319   H     0.37534   0.81005   0.70917   0.00000  Uiso   1.00
H320   H     0.42618   0.79981   0.62454   0.00000  Uiso   1.00
H321   H     0.34250   0.96796   0.52140   0.00000  Uiso   1.00
H322   H     0.35887   0.86710   0.48733   0.00000  Uiso   1.00
H323   H     0.44442   0.94683   0.55445   0.00000  Uiso   1.00
H324   H     0.36874   0.65756   0.83899   0.00000  Uiso   1.00
H325   H     0.29307   0.59043   0.76042   0.00000  Uiso   1.00
H326   H     0.41130   0.59088   0.78428   0.00000  Uiso   1.00
H327   H     0.65631   0.67287   0.82359   0.00000  Uiso   1.00
H328   H     0.55031   0.60923   0.75793   0.00000  Uiso   1.00
H329   H     0.54933   0.65251   0.85423   0.00000  Uiso   1.00
H330   H     0.59973   0.83225   0.63661   0.00000  Uiso   1.00
H331   H     0.59998   0.71872   0.63842   0.00000  Uiso   1.00
H332   H     0.70904   0.82845   0.65501   0.00000  Uiso   1.00
H333   H     0.48521   0.79065   0.82463   0.00000  Uiso   1.00
H334   H     0.46219   0.74831   0.73679   0.00000  Uiso   1.00
H335   H     0.53895   0.86908   0.74538   0.00000  Uiso   1.00
H336   H     1.02717   0.17864   0.10456   0.00000  Uiso   1.00
H337   H     1.01267   0.08382   0.16476   0.00000  Uiso   1.00
H338   H     0.95706   0.15313   0.18146   0.00000  Uiso   1.00
H339   H     0.68441   0.19399   0.12332   0.00000  Uiso   1.00
H340   H     0.78040   0.26321   0.18167   0.00000  Uiso   1.00
H341   H     0.66242   0.24996   0.19756   0.00000  Uiso   1.00
H342   H     0.92174   0.26235   0.14752   0.00000  Uiso   1.00
H343   H     0.91101   0.35070   0.09940   0.00000  Uiso   1.00
H344   H     1.00425   0.33340   0.08663   0.00000  Uiso   1.00
H345   H     0.75479   0.89538   0.54273   0.00000  Uiso   1.00
H346   H     0.70192   0.86018   0.45380   0.00000  Uiso   1.00
H347   H     0.68386   0.93912   0.51357   0.00000  Uiso   1.00
H348   H     0.97756   1.02846   0.39661   0.00000  Uiso   1.00
H349   H     0.85949   0.93530   0.37566   0.00000  Uiso   1.00
H350   H     0.92246   0.92852   0.45197   0.00000  Uiso   1.00
H351   H     0.98984   0.23889   0.27917   0.00000  Uiso   1.00
H352   H     0.96325   0.12056   0.29806   0.00000  Uiso   1.00
H353   H     1.02194   0.21004   0.37016   0.00000  Uiso   1.00
H354   H     0.94362   1.02823   0.74695   0.00000  Uiso   1.00
H355   H     0.82367   0.94408   0.73941   0.00000  Uiso   1.00
H356   H     0.89569   0.93416   0.81779   0.00000  Uiso   1.00
H357   H     0.56546   0.04436   0.90097   0.00000  Uiso   1.00
H358   H     0.64451   0.11232   0.83348   0.00000  Uiso   1.00
H359   H     0.58349  -0.01213   0.82797   0.00000  Uiso   1.00
H360   H     0.77547   0.36473   0.88086   0.00000  Uiso   1.00
H361   H     0.65091   0.31501   0.87661   0.00000  Uiso   1.00
H362   H     0.71253   0.24714   0.84941   0.00000  Uiso   1.00
H363   H     0.71454   0.40807   1.00771   0.00000  Uiso   1.00
H364   H     0.81652   0.40821   1.04103   0.00000  Uiso   1.00
H365   H     0.70793   0.34375   1.08928   0.00000  Uiso   1.00
H366   H     0.68797   0.04945   0.59561   0.00000  Uiso   1.00
H367   H     0.65661   0.00573   0.68816   0.00000  Uiso   1.00
H368   H     0.74179  -0.01681   0.64470   0.00000  Uiso   1.00
H369   H     0.70277   0.20384   0.66877   0.00000  Uiso   1.00
H370   H     0.82600   0.28861   0.65232   0.00000  Uiso   1.00
H371   H     0.78035   0.25927   0.74748   0.00000  Uiso   1.00
H372   H     0.80579   0.18388   0.53596   0.00000  Uiso   1.00
H373   H     0.71153   0.15324   0.48154   0.00000  Uiso   1.00
H374   H     0.72295   0.23586   0.55337   0.00000  Uiso   1.00
H375   H     0.84297   0.37968   0.26999   0.00000  Uiso   1.00
H376   H     0.88123   0.50269   0.28319   0.00000  Uiso   1.00
H377   H     0.77750   0.43138   0.22437   0.00000  Uiso   1.00
H378   H     0.58324   0.32663   0.38084   0.00000  Uiso   1.00
H379   H     0.60554   0.29078   0.29405   0.00000  Uiso   1.00
H380   H     0.60263   0.40380   0.31305   0.00000  Uiso   1.00
H381   H     0.72304   0.53183   0.40949   0.00000  Uiso   1.00
H382   H     0.80394   0.57671   0.33694   0.00000  Uiso   1.00
H383   H     0.84692   0.56054   0.42523   0.00000  Uiso   1.00
H384   H     0.61657   0.36118   0.58152   0.00000  Uiso   1.00
H385   H     0.66502   0.32306   0.52063   0.00000  Uiso   1.00
H386   H     0.65295   0.42865   0.50231   0.00000  Uiso   1.00
H387   H     0.76084   0.45648   0.72081   0.00000  Uiso   1.00
H388   H     0.85203   0.43283   0.69473   0.00000  Uiso   1.00
H389   H     0.72475   0.35284   0.68280   0.00000  Uiso   1.00
H390   H     0.68267   0.54148   0.00252   0.00000  Uiso   1.00
H391   H     0.67947   0.64068  -0.02839   0.00000  Uiso   1.00
H392   H     0.62786   0.59410   0.06192   0.00000  Uiso   1.00
H393   H     0.85577   0.62389  -0.01440   0.00000  Uiso   1.00
H394   H     0.88079   0.58868   0.07493   0.00000  Uiso   1.00
H395   H     0.95868   0.69797   0.03973   0.00000  Uiso   1.00
H396   H     0.78883   0.59695   0.18186   0.00000  Uiso   1.00
H397   H     0.72534   0.65532   0.19028   0.00000  Uiso   1.00
H398   H     0.85111   0.72180   0.20258   0.00000  Uiso   1.00
H399   H     0.62022   0.74181   0.16348   0.00000  Uiso   1.00
H400   H     0.67968   0.78040   0.08493   0.00000  Uiso   1.00
H401   H     0.59920   0.82000   0.10381   0.00000  Uiso   1.00
H402   H     0.86879   0.86475   0.16774   0.00000  Uiso   1.00
H403   H     0.80270   0.81358   0.25000   0.00000  Uiso   1.00
H404   H     0.88725   0.93631   0.25469   0.00000  Uiso   1.00
H405   H     0.65944   0.83762   0.29752   0.00000  Uiso   1.00
H406   H     0.61551   0.90727   0.25178   0.00000  Uiso   1.00
H407   H     0.73977   0.96590   0.30002   0.00000  Uiso   1.00
H408   H     0.77856   0.53200   0.84393   0.00000  Uiso   1.00
H409   H     0.70017   0.54712   0.78227   0.00000  Uiso   1.00
H410   H     0.71061   0.58858   0.86839   0.00000  Uiso   1.00
H411   H     0.84463   0.63838   0.61952   0.00000  Uiso   1.00
H412   H     0.72318   0.57200   0.63395   0.00000  Uiso   1.00
H413   H     0.75313   0.59765   0.54117   0.00000  Uiso   1.00
H414   H     0.99102   0.67561   0.78879   0.00000  Uiso   1.00
H415   H     0.95958   0.70917   0.70672   0.00000  Uiso   1.00
H416   H     0.90120   0.58763   0.73155   0.00000  Uiso   1.00
H417   H     0.89740   0.81764   0.72177   0.00000  Uiso   1.00
H418   H     0.78874   0.78797   0.76871   0.00000  Uiso   1.00
H419   H     0.78444   0.71631   0.69407   0.00000  Uiso   1.00
loop_
_geom_bond_atom_site_label_1
_geom_bond_atom_site_label_2
_geom_bond_distance
_geom_bond_site_symmetry_2
_ccdc_geom_bond_type
Si1    C52     1.866   .     S
Si1    C54     1.773   .     S
Si1    C53     1.893   1_545 S
Si1    O80     1.602   1_545 S
Si2    C55     1.855   .     S
Si2    O64     1.622   .     S
Si2    C56     1.860   1_554 S
Si2    O60     1.593   1_554 S
Si3    C57     1.835   .     S
Si3    C96     1.893   .     S
Si3    C58     1.866   1_545 S
Si3    O84     1.575   1_545 S
Si4    O61     1.573   .     S
Si4    O67     1.579   .     S
Si4    O146    1.664   1_455 S
Si4    O159    1.588   1_455 S
Si5    C59     1.831   .     S
Si5    O62     1.642   .     S
Si5    O90     1.641   1_545 S
Si5    O93     1.639   1_545 S
Si6    O60     1.588   .     S
Si6    O70     1.565   .     S
Si6    O143    1.621   1_455 S
Si6    O152    1.596   1_455 S
Si7    O61     1.556   .     S
Si7    O62     1.631   .     S
Si7    O71     1.649   .     S
Si7    O100    1.581   .     S
Si8    C63     1.920   .     S
Si8    O64     1.614   .     S
Si8    C65     1.811   .     S
Si8    O66     1.582   .     S
Si9    O66     1.605   .     S
Si9    O78     1.522   .     S
Si9    O72     1.572   1_554 S
Si9    O115    1.596   1_554 S
Si10   O67     1.589   .     S
Si10   C68     1.802   .     S
Si10   C69     1.876   .     S
Si10   O110    1.558   .     S
Si11   O75     1.658   .     S
Si11   O81     1.634   .     S
Si11   O165    1.581   1_455 S
Si11   O170    1.631   1_455 S
Si12   O70     1.630   .     S
Si12   O71     1.667   .     S
Si12   O76     1.620   .     S
Si12   O113    1.580   .     S
Si13   O72     1.597   .     S
Si13   O87     1.585   .     S
Si13   C73     1.829   1_455 S
Si13   C74     1.924   1_455 S
Si14   O75     1.650   .     S
Si14   O76     1.644   .     S
Si14   O88     1.704   .     S
Si14   O112    1.629   .     S
Si15   C77     1.931   .     S
Si15   O78     1.580   .     S
Si15   O79     1.582   .     S
Si15   O116    1.608   .     S
Si16   O79     1.624   .     S
Si16   O80     1.609   .     S
Si16   O89     1.630   1_554 S
Si16   O138    1.626   1_554 S
Si17   O81     1.611   .     S
Si17   C82     1.786   .     S
Si17   C83     1.847   .     S
Si17   C126    1.817   .     S
Si18   O84     1.640   .     S
Si18   O91     1.632   .     S
Si18   C85     1.862   1_455 S
Si18   C86     1.939   1_455 S
Si19   O87     1.591   .     S
Si19   O88     1.674   .     S
Si19   O92     1.649   .     S
Si19   O135    1.633   .     S
Si20   O89     1.670   .     S
Si20   O90     1.655   .     S
Si20   O180    1.620   1_455 S
Si20   O187    1.611   1_455 S
Si21   O91     1.636   .     S
Si21   O92     1.636   .     S
Si21   O93     1.603   .     S
Si21   O130    1.608   .     S
Si22   O94     1.581   .     S
Si22   O140    1.645   .     S
Si22   O118    1.633   1_545 S
Si22   O121    1.686   1_545 S
Si23   O94     1.652   .     S
Si23   O107    1.590   .     S
Si23   C95     1.868   1_554 S
Si23   O158    1.623   1_554 S
Si24   C97     1.833   .     S
Si24   C98     1.829   .     S
Si24   C99     1.862   .     S
Si24   O100    1.575   .     S
Si25   C101    1.905   .     S
Si25   C102    1.819   .     S
Si25   C103    1.862   .     S
Si25   O142    1.606   .     S
Si26   C104    1.821   .     S
Si26   C154    1.865   .     S
Si26   C105    1.904   1_545 S
Si26   O137    1.578   1_545 S
Si27   C106    1.822   .     S
Si27   O107    1.668   .     S
Si27   C108    1.837   .     S
Si27   C109    1.874   .     S
Si28   O110    1.571   .     S
Si28   C111    1.876   .     S
Si28   O112    1.609   .     S
Si28   O122    1.569   .     S
Si29   O113    1.621   .     S
Si29   C114    1.852   .     S
Si29   O115    1.568   .     S
Si29   C131    1.751   .     S
Si30   O116    1.609   .     S
Si30   C117    1.882   .     S
Si30   O118    1.628   .     S
Si30   C119    1.892   .     S
Si31   C120    1.831   .     S
Si31   O121    1.646   .     S
Si31   O136    1.654   1_554 S
Si31   O191    1.614   1_554 S
Si32   O122    1.605   .     S
Si32   C123    1.845   .     S
Si32   C124    1.838   .     S
Si32   C125    1.877   .     S
Si33   C127    1.902   .     S
Si33   C128    1.854   .     S
Si33   C129    1.799   .     S
Si33   O130    1.608   .     S
Si34   C132    1.905   .     S
Si34   C133    1.910   .     S
Si34   C134    1.781   .     S
Si34   O188    1.579   .     S
Si35   O135    1.644   .     S
Si35   O136    1.682   .     S
Si35   O137    1.587   .     S
Si35   O138    1.629   .     S
Si36   C139    1.867   .     S
Si36   O144    1.582   .     S
Si36   O178    1.598   1_545 S
Si36   O182    1.623   1_545 S
Si37   O140    1.674   .     S
Si37   C141    1.821   .     S
Si37   O142    1.594   .     S
Si37   O150    1.616   .     S
Si38   O144    1.642   .     S
Si38   C145    1.858   .     S
Si38   O143    1.637   1_554 S
Si38   O156    1.589   1_554 S
Si39   O146    1.581   .     S
Si39   O151    1.616   .     S
Si39   C147    1.888   1_545 S
Si39   C148    1.870   1_545 S
Si40   C149    1.895   .     S
Si40   O150    1.648   .     S
Si40   O151    1.584   .     S
Si40   O164    1.611   .     S
Si41   O152    1.585   .     S
Si41   O161    1.574   .     S
Si41   C153    1.795   1_545 S
Si41   O190    1.547   1_545 S
Si42   C155    1.819   .     S
Si42   O156    1.554   .     S
Si42   C157    1.880   .     S
Si42   O158    1.564   .     S
Si43   O159    1.615   .     S
Si43   C160    1.836   .     S
Si43   O161    1.579   .     S
Si43   C162    1.879   .     S
Si44   C163    1.852   .     S
Si44   O164    1.616   .     S
Si44   O165    1.643   .     S
Si44   O168    1.599   .     S
Si45   C166    1.853   .     S
Si45   C167    1.831   .     S
Si45   O168    1.609   .     S
Si45   C169    1.902   .     S
Si46   O170    1.591   .     S
Si46   C171    1.932   .     S
Si46   C172    1.849   .     S
Si46   C184    1.852   .     S
Si47   C173    1.878   .     S
Si47   C174    1.889   .     S
Si47   C175    1.885   .     S
Si47   O181    1.620   .     S
Si48   C176    1.821   .     S
Si48   C177    1.813   .     S
Si48   O178    1.534   .     S
Si48   C179    1.896   .     S
Si49   O181    1.568   .     S
Si49   O182    1.583   .     S
Si49   O180    1.689   1_554 S
Si49   O189    1.599   1_554 S
Si50   C183    1.875   .     S
Si50   C185    1.839   .     S
Si50   C186    1.829   .     S
Si50   O187    1.605   .     S
Si51   O188    1.584   .     S
Si51   O189    1.648   .     S
Si51   O190    1.592   .     S
Si51   O191    1.624   .     S
C52    H192    1.077   .     S
C52    H193    1.105   .     S
C52    H194    1.072   .     S
C53    H195    1.123   .     S
C53    H196    1.053   .     S
C53    H197    1.090   .     S
C53    Si1     1.893   1_565 S
C54    H198    1.081   .     S
C54    H199    1.105   .     S
C54    H200    1.125   .     S
C55    H201    1.152   .     S
C55    H202    1.075   .     S
C55    H203    1.080   .     S
C56    H204    1.080   .     S
C56    H205    1.084   .     S
C56    H206    1.086   .     S
C56    Si2     1.860   1_556 S
C57    H207    1.061   .     S
C57    H208    1.116   .     S
C57    H209    1.085   .     S
C58    H210    1.096   .     S
C58    H211    1.089   .     S
C58    H212    1.119   .     S
C58    Si3     1.866   1_565 S
C59    H213    1.141   .     S
C59    H214    1.101   .     S
C59    H215    1.092   .     S
O60    Si2     1.593   1_556 S
C63    H216    1.132   .     S
C63    H217    1.131   .     S
C63    H218    1.084   .     S
C65    H219    1.070   .     S
C65    H220    1.107   .     S
C65    H221    1.142   .     S
C68    H222    1.168   .     S
C68    H223    1.143   .     S
C68    H224    1.137   .     S
C69    H225    1.106   .     S
C69    H226    1.132   .     S
C69    H227    1.048   .     S
O72    Si9     1.572   1_556 S
C73    H228    1.095   .     S
C73    H229    1.081   .     S
C73    H230    1.112   .     S
C73    Si13    1.829   1_655 S
C74    H231    1.161   .     S
C74    H232    1.076   .     S
C74    H233    1.106   .     S
C74    Si13    1.924   1_655 S
C77    H234    1.134   .     S
C77    H235    1.095   .     S
C77    H236    1.055   .     S
O80    Si1     1.602   1_565 S
C82    H237    1.092   .     S
C82    H238    1.060   .     S
C82    H239    1.073   .     S
C83    H240    1.061   .     S
C83    H241    1.069   .     S
C83    H242    1.107   .     S
O84    Si3     1.575   1_565 S
C85    H243    1.139   .     S
C85    H244    1.114   .     S
C85    H245    1.099   .     S
C85    Si18    1.862   1_655 S
C86    H246    1.116   .     S
C86    H247    1.106   .     S
C86    H248    1.082   .     S
C86    Si18    1.939   1_655 S
O89    Si16    1.630   1_556 S
O90    Si5     1.641   1_565 S
O93    Si5     1.639   1_565 S
C95    H249    1.101   .     S
C95    H250    1.096   .     S
C95    H251    1.098   .     S
C95    Si23    1.868   1_556 S
C96    H252    1.131   .     S
C96    H253    1.160   .     S
C96    H254    1.103   .     S
C97    H255    1.112   .     S
C97    H256    1.118   .     S
C97    H257    1.119   .     S
C98    H258    1.114   .     S
C98    H259    1.148   .     S
C98    H260    1.071   .     S
C99    H261    1.101   .     S
C99    H262    1.089   .     S
C99    H263    1.152   .     S
C101   H264    1.108   .     S
C101   H265    1.087   .     S
C101   H266    1.068   .     S
C102   H267    1.105   .     S
C102   H268    1.075   .     S
C102   H269    1.101   .     S
C103   H270    1.178   .     S
C103   H271    1.136   .     S
C103   H272    1.074   .     S
C104   H273    1.120   .     S
C104   H274    1.121   .     S
C104   H275    1.107   .     S
C105   H276    1.086   .     S
C105   H277    1.090   .     S
C105   H278    1.101   .     S
C105   Si26    1.904   1_565 S
C106   H279    1.108   .     S
C106   H280    1.064   .     S
C106   H281    1.095   .     S
C108   H282    1.148   .     S
C108   H283    1.118   .     S
C108   H284    1.101   .     S
C109   H285    1.145   .     S
C109   H286    1.147   .     S
C109   H287    1.129   .     S
C111   H288    1.056   .     S
C111   H289    1.092   .     S
C111   H290    1.156   .     S
C114   H291    1.123   .     S
C114   H292    1.102   .     S
C114   H293    1.104   .     S
O115   Si9     1.596   1_556 S
C117   H294    1.075   .     S
C117   H295    1.166   .     S
C117   H296    1.091   .     S
O118   Si22    1.633   1_565 S
C119   H297    1.126   .     S
C119   H298    1.076   .     S
C119   H299    1.073   .     S
C120   H300    1.097   .     S
C120   H301    1.052   .     S
C120   H302    1.105   .     S
O121   Si22    1.686   1_565 S
C123   H303    1.169   .     S
C123   H304    1.118   .     S
C123   H305    1.152   .     S
C124   H306    1.124   .     S
C124   H307    1.099   .     S
C124   H308    1.045   .     S
C125   H309    1.126   .     S
C125   H310    1.059   .     S
C125   H311    1.148   .     S
C126   H312    1.068   .     S
C126   H313    1.092   .     S
C126   H314    1.083   .     S
C127   H315    1.138   .     S
C127   H316    1.066   .     S
C127   H317    1.108   .     S
C128   H318    1.117   .     S
C128   H319    1.128   .     S
C128   H320    1.119   .     S
C129   H321    1.123   .     S
C129   H322    1.135   .     S
C129   H323    1.106   .     S
C131   H324    1.129   .     S
C131   H325    1.111   .     S
C131   H326    1.100   .     S
C132   H327    1.127   .     S
C132   H328    1.118   .     S
C132   H329    1.104   .     S
C133   H330    1.131   .     S
C133   H331    1.148   .     S
C133   H332    1.113   .     S
C134   H333    1.053   .     S
C134   H334    1.097   .     S
C134   H335    1.105   .     S
O136   Si31    1.654   1_556 S
O137   Si26    1.578   1_565 S
O138   Si16    1.626   1_556 S
C139   H336    1.099   .     S
C139   H337    1.144   .     S
C139   H338    1.127   .     S
C141   H339    1.117   .     S
C141   H340    1.105   .     S
C141   H341    1.085   .     S
O143   Si6     1.621   1_655 S
O143   Si38    1.637   1_556 S
C145   H342    1.114   .     S
C145   H343    1.093   .     S
C145   H344    1.034   .     S
O146   Si4     1.664   1_655 S
C147   H345    1.062   .     S
C147   H346    1.144   .     S
C147   H347    1.113   .     S
C147   Si39    1.888   1_565 S
C148   H348    1.074   .     S
C148   H349    1.074   .     S
C148   H350    1.119   .     S
C148   Si39    1.870   1_565 S
C149   H351    1.068   .     S
C149   H352    1.147   .     S
C149   H353    1.093   .     S
O152   Si6     1.596   1_655 S
C153   H354    1.082   .     S
C153   H355    1.064   .     S
C153   H356    1.149   .     S
C153   Si41    1.795   1_565 S
C154   H357    1.066   .     S
C154   H358    1.123   .     S
C154   H359    1.094   .     S
C155   H360    1.060   .     S
C155   H361    1.112   .     S
C155   H362    1.155   .     S
O156   Si38    1.589   1_556 S
C157   H363    1.104   .     S
C157   H364    1.095   .     S
C157   H365    1.097   .     S
O158   Si23    1.623   1_556 S
O159   Si4     1.588   1_655 S
C160   H366    1.110   .     S
C160   H367    1.139   .     S
C160   H368    1.101   .     S
C162   H369    1.100   .     S
C162   H370    1.151   .     S
C162   H371    1.143   .     S
C163   H372    1.086   .     S
C163   H373    1.055   .     S
C163   H374    1.174   .     S
O165   Si11    1.581   1_655 S
C166   H375    1.124   .     S
C166   H376    1.122   .     S
C166   H377    1.111   .     S
C167   H378    1.071   .     S
C167   H379    1.182   .     S
C167   H380    1.084   .     S
C169   H381    1.123   .     S
C169   H382    1.092   .     S
C169   H383    1.078   .     S
O170   Si11    1.631   1_655 S
C171   H384    1.070   .     S
C171   H385    1.112   .     S
C171   H386    1.077   .     S
C172   H387    1.068   .     S
C172   H388    1.071   .     S
C172   H389    1.090   .     S
C173   H390    1.141   .     S
C173   H391    1.150   .     S
C173   H392    1.127   .     S
C174   H393    1.098   .     S
C174   H394    1.121   .     S
C174   H395    1.077   .     S
C175   H396    1.057   .     S
C175   H397    1.067   .     S
C175   H398    1.100   .     S
C176   H399    1.145   .     S
C176   H400    1.036   .     S
C176   H401    1.092   .     S
C177   H402    1.142   .     S
C177   H403    1.103   .     S
C177   H404    1.123   .     S
O178   Si36    1.598   1_565 S
C179   H405    1.100   .     S
C179   H406    1.139   .     S
C179   H407    1.129   .     S
O180   Si20    1.620   1_655 S
O180   Si49    1.689   1_556 S
O182   Si36    1.623   1_565 S
C183   H408    1.068   .     S
C183   H409    1.115   .     S
C183   H410    1.069   .     S
C184   H411    1.115   .     S
C184   H412    1.102   .     S
C184   H413    1.099   .     S
C185   H414    1.099   .     S
C185   H415    1.096   .     S
C185   H416    1.047   .     S
C186   H417    1.096   .     S
C186   H418    1.120   .     S
C186   H419    1.104   .     S
O187   Si20    1.611   1_655 S
O189   Si49    1.599   1_556 S
O190   Si41    1.547   1_565 S
O191   Si31    1.614   1_556 S
