data_333-13-11-12-15-30-12
_audit_creation_date              2025-03-07
_audit_creation_method            'Materials Studio'
_symmetry_space_group_name_H-M    'P1'
_symmetry_Int_Tables_number       1
_symmetry_cell_setting            triclinic
loop_
_symmetry_equiv_pos_as_xyz
  x,y,z
_cell_length_a                    15.8406
_cell_length_b                    17.9933
_cell_length_c                    18.9433
_cell_angle_alpha                 90.1713
_cell_angle_beta                  96.7242
_cell_angle_gamma                 116.8965
loop_
_atom_site_label
_atom_site_type_symbol
_atom_site_fract_x
_atom_site_fract_y
_atom_site_fract_z
_atom_site_U_iso_or_equiv
_atom_site_adp_type
_atom_site_occupancy
Si1    Si    0.22532   0.07142   0.12910   0.00000  Uiso   1.00
Si2    Si    0.04546   0.16056   0.25591   0.00000  Uiso   1.00
Si3    Si    0.22302  -0.00836   0.43212   0.00000  Uiso   1.00
Si4    Si    0.20123   0.13143   0.35331   0.00000  Uiso   1.00
Si5    Si   -0.06220   0.16632   0.93212   0.00000  Uiso   1.00
Si6    Si    0.21449   0.14181   0.60185   0.00000  Uiso   1.00
Si7    Si    0.12489   0.30967   0.16822   0.00000  Uiso   1.00
Si8    Si   -0.06513   0.48035   0.21349   0.00000  Uiso   1.00
Si9    Si    0.27624   0.31592   0.40752   0.00000  Uiso   1.00
Si10   Si    0.04675   0.55706   0.44317   0.00000  Uiso   1.00
Si11   Si    0.15139   0.57219   0.26144   0.00000  Uiso   1.00
Si12   Si   -0.08373   0.47718   0.95910   0.00000  Uiso   1.00
Si13   Si    0.17720   0.70750   0.36418   0.00000  Uiso   1.00
Si14   Si    0.24298   0.88262   0.31342   0.00000  Uiso   1.00
Si15   Si   -0.08148   0.82165   0.98339   0.00000  Uiso   1.00
Si16   Si    0.26541   0.80444   0.60203   0.00000  Uiso   1.00
Si17   Si    0.54223  -0.00338   0.14933   0.00000  Uiso   1.00
Si18   Si    0.36463   0.14545   0.26293   0.00000  Uiso   1.00
Si19   Si    0.51655  -0.03235   0.42898   0.00000  Uiso   1.00
Si20   Si    0.37086   0.11147   0.55456   0.00000  Uiso   1.00
Si21   Si    0.54060   0.12143   0.33916   0.00000  Uiso   1.00
Si22   Si    0.49181   0.01487   0.81705   0.00000  Uiso   1.00
Si23   Si    0.31108   0.19908   0.87818   0.00000  Uiso   1.00
Si24   Si    0.49020   0.13518   0.70033   0.00000  Uiso   1.00
Si25   Si    0.50118   0.30111   0.20280   0.00000  Uiso   1.00
Si26   Si    0.53843   0.23225   0.46736   0.00000  Uiso   1.00
Si27   Si    0.36634   0.45053   0.52636   0.00000  Uiso   1.00
Si28   Si    0.47079   0.27604   0.78130   0.00000  Uiso   1.00
Si29   Si    0.40388   0.68868   0.01235   0.00000  Uiso   1.00
Si30   Si    0.39360   0.86112   0.23416   0.00000  Uiso   1.00
Si31   Si    0.51181   0.88436   0.01354   0.00000  Uiso   1.00
Si32   Si    0.35854   0.79927   0.47161   0.00000  Uiso   1.00
Si33   Si    0.35461   0.88469   0.90409   0.00000  Uiso   1.00
Si34   Si    0.51377   0.75642   0.55932   0.00000  Uiso   1.00
Si35   Si    0.86496   0.05453   0.14517   0.00000  Uiso   1.00
Si36   Si    0.70194   0.15971   0.23560   0.00000  Uiso   1.00
Si37   Si    0.81439   0.16786   0.04746   0.00000  Uiso   1.00
Si38   Si    0.86770   0.09986   0.45138   0.00000  Uiso   1.00
Si39   Si    0.89829   0.20617   0.32631   0.00000  Uiso   1.00
Si40   Si    0.78102   0.03341   0.82070   0.00000  Uiso   1.00
Si41   Si    0.64941   0.14157   0.92909   0.00000  Uiso   1.00
Si42   Si    0.79314   0.30597   0.13207   0.00000  Uiso   1.00
Si43   Si    0.73044   0.41362   0.03661   0.00000  Uiso   1.00
Si44   Si    0.93455   0.37067   0.40213   0.00000  Uiso   1.00
Si45   Si    0.69325   0.37015   0.57031   0.00000  Uiso   1.00
Si46   Si    0.59791   0.40135   0.90117   0.00000  Uiso   1.00
Si47   Si    0.70665   0.56383   0.10173   0.00000  Uiso   1.00
Si48   Si    0.80364   0.89981   0.04467   0.00000  Uiso   1.00
Si49   Si    0.82964   0.92375   0.39585   0.00000  Uiso   1.00
Si50   Si    0.66599   0.90494   0.92056   0.00000  Uiso   1.00
Si51   Si    0.87812   0.95791   0.73536   0.00000  Uiso   1.00
C52    C     0.23756   0.17821   0.11072   0.00000  Uiso   1.00
C53    C     0.09938   1.00820   0.14534   0.00000  Uiso   1.00
C54    C     0.24060   1.01466   0.05858   0.00000  Uiso   1.00
C55    C     0.11298   0.89056   0.44570   0.00000  Uiso   1.00
O56    O     0.10841   0.11928   0.30052   0.00000  Uiso   1.00
O57    O     0.18049   0.05306   0.40360   0.00000  Uiso   1.00
C58    C     0.01203   0.11112   0.95023   0.00000  Uiso   1.00
C59    C     0.00012   0.25830   0.88577   0.00000  Uiso   1.00
C60    C     0.10960   0.04122   0.56173   0.00000  Uiso   1.00
C61    C     0.23308   0.11689   0.69694   0.00000  Uiso   1.00
C62    C     0.19303   0.23451   0.59716   0.00000  Uiso   1.00
O63    O     0.11675   0.24107   0.22358   0.00000  Uiso   1.00
C64    C     0.10005   0.27597   0.07567   0.00000  Uiso   1.00
C65    C     0.03666   0.34315   0.18773   0.00000  Uiso   1.00
C66    C     0.24790   0.40167   0.17296   0.00000  Uiso   1.00
C67    C    -0.04457   0.55884   0.14418   0.00000  Uiso   1.00
C68    C     0.85340   0.50004   0.26894   0.00000  Uiso   1.00
C69    C     0.16712   0.32904   0.40300   0.00000  Uiso   1.00
O70    O     0.24831   0.22058   0.40225   0.00000  Uiso   1.00
C71    C     0.14294   0.55579   0.51132   0.00000  Uiso   1.00
C72    C     0.95257   0.55584   0.49179   0.00000  Uiso   1.00
O73    O     0.04061   0.50849   0.25470   0.00000  Uiso   1.00
C74    C     0.33570   0.36580   0.33295   0.00000  Uiso   1.00
C75    C     0.21908   0.53364   0.32282   0.00000  Uiso   1.00
C76    C     0.19609   0.58198   0.16972   0.00000  Uiso   1.00
C77    C     0.00272   0.43264   0.99708   0.00000  Uiso   1.00
C78    C    -0.01038   0.59276   0.95853   0.00000  Uiso   1.00
C79    C     0.87192   0.43762   0.86304   0.00000  Uiso   1.00
O80    O     0.08604   0.64099   0.40198   0.00000  Uiso   1.00
O81    O     0.17674   0.66368   0.29191   0.00000  Uiso   1.00
C82    C     0.15328   0.87476   0.23425   0.00000  Uiso   1.00
O83    O     0.18254   0.79615   0.34924   0.00000  Uiso   1.00
O84    O     0.26429   0.95890   0.37044   0.00000  Uiso   1.00
C85    C     0.01070   0.79825   1.03531   0.00000  Uiso   1.00
C86    C    -0.01889   0.90271   0.92031   0.00000  Uiso   1.00
C87    C     0.81427   0.73258   0.92813   0.00000  Uiso   1.00
C88    C     0.13185   0.74526   0.57722   0.00000  Uiso   1.00
C89    C     0.30650   0.73685   0.64807   0.00000  Uiso   1.00
C90    C     0.29190   0.90077   0.65020   0.00000  Uiso   1.00
C91    C     0.46514   0.04020   0.10716   0.00000  Uiso   1.00
O92    O     0.30594   0.08574   0.19419   0.00000  Uiso   1.00
O93    O     0.28944   0.13806   0.31476   0.00000  Uiso   1.00
C94    C     0.54350   0.02535   0.51862   0.00000  Uiso   1.00
C95    C     0.60684   0.93896   0.40932   0.00000  Uiso   1.00
O96    O     0.30254   0.03101   0.50358   0.00000  Uiso   1.00
O97    O     0.31067   0.15763   0.56960   0.00000  Uiso   1.00
O98    O     0.44304   0.11684   0.29696   0.00000  Uiso   1.00
O99    O     0.51190   0.02671   0.36678   0.00000  Uiso   1.00
C100   C     0.23055   0.07941   0.88036   0.00000  Uiso   1.00
C101   C     0.37197   0.23945   0.96963   0.00000  Uiso   1.00
C102   C     0.23563   0.24992   0.85406   0.00000  Uiso   1.00
O103   O     0.40937   0.09111   0.63017   0.00000  Uiso   1.00
O104   O     0.46424   0.07633   0.76621   0.00000  Uiso   1.00
C105   C     0.60237   0.15788   0.66755   0.00000  Uiso   1.00
O106   O     0.41427   0.23643   0.24023   0.00000  Uiso   1.00
C107   C     0.52169   0.25106   0.12795   0.00000  Uiso   1.00
C108   C     0.47363   0.38433   0.16563   0.00000  Uiso   1.00
C109   C     0.61387   0.34095   0.26858   0.00000  Uiso   1.00
O110   O     0.45827   0.17224   0.51435   0.00000  Uiso   1.00
O111   O     0.56658   0.18209   0.41186   0.00000  Uiso   1.00
C112   C     0.49701   0.30488   0.42714   0.00000  Uiso   1.00
O113   O     0.33473   0.36575   0.48206   0.00000  Uiso   1.00
C114   C     0.48166   0.47630   0.58174   0.00000  Uiso   1.00
C115   C     0.39393   0.53312   0.45696   0.00000  Uiso   1.00
C116   C     0.28071   0.44595   0.58449   0.00000  Uiso   1.00
O117   O     0.38373   0.21575   0.82218   0.00000  Uiso   1.00
O118   O     0.48832   0.22001   0.72280   0.00000  Uiso   1.00
C119   C     0.44549   0.35759   0.73301   0.00000  Uiso   1.00
C120   C     0.27742   0.67052  -0.00043   0.00000  Uiso   1.00
C121   C     0.43126   0.64516  -0.06580   0.00000  Uiso   1.00
C122   C     0.42043   0.63829   0.09521   0.00000  Uiso   1.00
C123   C     0.30926   0.79991   0.15346   0.00000  Uiso   1.00
C124   C     0.43163   0.78608   0.27804   0.00000  Uiso   1.00
O125   O     0.48630   0.93734   0.21145   0.00000  Uiso   1.00
O126   O     0.34145   0.89020   0.28819   0.00000  Uiso   1.00
O127   O     0.47531   0.78717   0.02361   0.00000  Uiso   1.00
O128   O     0.54781   0.93607   0.09040   0.00000  Uiso   1.00
O129   O     0.27385   0.72783   0.42112   0.00000  Uiso   1.00
O130   O     0.41687   0.88082   0.42638   0.00000  Uiso   1.00
O131   O     0.31522   0.82502   0.53167   0.00000  Uiso   1.00
C132   C     0.33235   0.79262   0.84480   0.00000  Uiso   1.00
O133   O     0.42744   0.89923   0.97121   0.00000  Uiso   1.00
O134   O     0.40448   0.96755   0.86179   0.00000  Uiso   1.00
C135   C     0.23452   0.86994   0.92059   0.00000  Uiso   1.00
O136   O     0.42827   0.75917   0.50206   0.00000  Uiso   1.00
C137   C     0.48246   0.67509   0.62725   0.00000  Uiso   1.00
C138   C     0.57551   0.85859   0.61005   0.00000  Uiso   1.00
C139   C     0.49905   0.94217   0.75626   0.00000  Uiso   1.00
C140   C     0.59647   0.73895   0.51057   0.00000  Uiso   1.00
O141   O     0.97488   0.10535   0.18968   0.00000  Uiso   1.00
C142   C     0.78620   0.99360   0.20961   0.00000  Uiso   1.00
O143   O     0.64426   0.07240   0.18715   0.00000  Uiso   1.00
O144   O     0.63638   0.15897   0.29733   0.00000  Uiso   1.00
O145   O     0.89777   0.18429   0.99996   0.00000  Uiso   1.00
O146   O     0.82381   0.11213   0.11095   0.00000  Uiso   1.00
C147   C     0.99308   0.13854   0.49253   0.00000  Uiso   1.00
C148   C     0.79019   1.10005   0.51595   0.00000  Uiso   1.00
O149   O     0.98473   0.18130   0.31123   0.00000  Uiso   1.00
O150   O     0.80621   0.17251   0.26924   0.00000  Uiso   1.00
O151   O     0.86324   0.16298   0.39550   0.00000  Uiso   1.00
C152   C     0.72500   0.06349   0.74343   0.00000  Uiso   1.00
O153   O     0.84594   0.11340   0.87343   0.00000  Uiso   1.00
O154   O     0.58710   0.06181   0.87472   0.00000  Uiso   1.00
O155   O     0.71759   0.12572   0.99032   0.00000  Uiso   1.00
C156   C     0.72295   0.23511   0.88308   0.00000  Uiso   1.00
C157   C     0.55943   0.17116   0.96078   0.00000  Uiso   1.00
O158   O     0.72378   0.23805   0.18492   0.00000  Uiso   1.00
O159   O     0.83185   0.25789   0.08098   0.00000  Uiso   1.00
O160   O     0.88371   0.38478   0.17743   0.00000  Uiso   1.00
O161   O     0.82970   0.46190   1.00671   0.00000  Uiso   1.00
O162   O     0.72785   0.33822   0.08152   0.00000  Uiso   1.00
C163   C     0.98273   0.34596   0.48510   0.00000  Uiso   1.00
O164   O     0.94057   0.30649   0.34123   0.00000  Uiso   1.00
C165   C     0.80540   0.34042   0.40022   0.00000  Uiso   1.00
O166   O     1.00318   0.46972   0.39546   0.00000  Uiso   1.00
O167   O     0.63196   0.29156   0.51743   0.00000  Uiso   1.00
C168   C     0.80482   0.36659   0.61837   0.00000  Uiso   1.00
C169   C     0.71438   0.46882   0.52845   0.00000  Uiso   1.00
C170   C     0.63308   0.37150   0.64721   0.00000  Uiso   1.00
O171   O     0.55797   0.32361   0.84333   0.00000  Uiso   1.00
O172   O     0.64296   0.37629   0.97324   0.00000  Uiso   1.00
C173   C     0.69010   0.49757   0.86279   0.00000  Uiso   1.00
C174   C     0.49293   0.41933   0.91570   0.00000  Uiso   1.00
C175   C     0.68132   0.58066   0.19119   0.00000  Uiso   1.00
O176   O     0.71226   0.47657   0.08762   0.00000  Uiso   1.00
C177   C     0.81925   0.65626   0.09742   0.00000  Uiso   1.00
O178   O     0.88071   0.86503   1.03832   0.00000  Uiso   1.00
C179   C     0.62047   0.57956   0.03784   0.00000  Uiso   1.00
C180   C     0.70613   0.83076   0.09095   0.00000  Uiso   1.00
O181   O     0.85762   0.99010   0.08411   0.00000  Uiso   1.00
C182   C     0.93914   0.95807   0.35426   0.00000  Uiso   1.00
C183   C     0.72546   0.84729   0.33632   0.00000  Uiso   1.00
C184   C     0.84550   0.87935   0.48067   0.00000  Uiso   1.00
O185   O     0.82696   1.00903   0.41186   0.00000  Uiso   1.00
C186   C     0.60923   0.80707   0.86480   0.00000  Uiso   1.00
O187   O     0.76114   0.91323   0.96752   0.00000  Uiso   1.00
O188   O     0.69724   0.97242   0.86171   0.00000  Uiso   1.00
O189   O     0.60091   0.92040   0.96896   0.00000  Uiso   1.00
C190   C     0.85154   0.99931   0.64937   0.00000  Uiso   1.00
C191   C     0.82798   0.84128   0.73277   0.00000  Uiso   1.00
C192   C     1.01175   0.99825   0.75446   0.00000  Uiso   1.00
O193   O     0.84163   0.98697   0.79849   0.00000  Uiso   1.00
H194   H     0.30622   0.22421   0.10114   0.00000  Uiso   1.00
H195   H     0.22205   0.20204   0.15581   0.00000  Uiso   1.00
H196   H     0.18844   0.16982   0.06301   0.00000  Uiso   1.00
H197   H     0.07628   0.94036   0.13235   0.00000  Uiso   1.00
H198   H     0.04725   1.02263   0.10896   0.00000  Uiso   1.00
H199   H     0.09086   1.01998   0.20348   0.00000  Uiso   1.00
H200   H     0.17827   1.00355   0.01766   0.00000  Uiso   1.00
H201   H     0.23199   0.95461   0.07655   0.00000  Uiso   1.00
H202   H     0.31496   1.05954   0.04592   0.00000  Uiso   1.00
H203   H     0.14168   0.85491   0.47967   0.00000  Uiso   1.00
H204   H     0.08340   0.86040   0.39408   0.00000  Uiso   1.00
H205   H     0.06113   0.89963   0.47595   0.00000  Uiso   1.00
H206   H     0.00504   0.07799   0.90063   0.00000  Uiso   1.00
H207   H    -0.01188   0.07013   0.99340   0.00000  Uiso   1.00
H208   H     0.08908   0.15495   0.96323   0.00000  Uiso   1.00
H209   H     0.07619   0.28912   0.91475   0.00000  Uiso   1.00
H210   H    -0.03805   0.29527   0.89001   0.00000  Uiso   1.00
H211   H    -0.00057   0.24201   0.82749   0.00000  Uiso   1.00
H212   H     0.14042  -0.00453   0.56439   0.00000  Uiso   1.00
H213   H     0.08850   0.04604   0.50332   0.00000  Uiso   1.00
H214   H     0.04576   0.01650   0.59475   0.00000  Uiso   1.00
H215   H     0.30656   0.12154   0.70936   0.00000  Uiso   1.00
H216   H     0.18026   0.05564   0.70656   0.00000  Uiso   1.00
H217   H     0.22835   0.16618   0.72680   0.00000  Uiso   1.00
H218   H     0.25405   0.29524   0.61780   0.00000  Uiso   1.00
H219   H     0.13643   0.22539   0.63111   0.00000  Uiso   1.00
H220   H     0.17959   0.25004   0.54197   0.00000  Uiso   1.00
H221   H     0.17260   0.29462   0.05270   0.00000  Uiso   1.00
H222   H     0.07441   0.31927   0.05016   0.00000  Uiso   1.00
H223   H     0.05001   0.20644   0.06814   0.00000  Uiso   1.00
H224   H    -0.03583   0.29373   0.18352   0.00000  Uiso   1.00
H225   H     0.04749   0.39141   0.14506   0.00000  Uiso   1.00
H226   H     0.05578   0.36394   0.24398   0.00000  Uiso   1.00
H227   H     0.25153   0.44492   0.21624   0.00000  Uiso   1.00
H228   H     0.25638   0.43338   0.12372   0.00000  Uiso   1.00
H229   H     0.29623   0.37485   0.18074   0.00000  Uiso   1.00
H230   H    -0.10703   0.55723   0.12009   0.00000  Uiso   1.00
H231   H    -0.01517   0.54119   0.10137   0.00000  Uiso   1.00
H232   H     0.00972   0.61921   0.16923   0.00000  Uiso   1.00
H233   H     0.78944   0.49580   0.23609   0.00000  Uiso   1.00
H234   H     0.89907   0.56846   0.28651   0.00000  Uiso   1.00
H235   H     0.84502   0.46425   0.31711   0.00000  Uiso   1.00
H236   H     0.12097   0.28382   0.43928   0.00000  Uiso   1.00
H237   H     0.13376   0.31229   0.34683   0.00000  Uiso   1.00
H238   H     0.18090   0.39273   0.42117   0.00000  Uiso   1.00
H239   H     0.11326   0.51300   0.55268   0.00000  Uiso   1.00
H240   H     0.19095   0.62124   0.52654   0.00000  Uiso   1.00
H241   H     0.18486   0.53121   0.48330   0.00000  Uiso   1.00
H242   H     0.88414   0.53912   0.45581   0.00000  Uiso   1.00
H243   H     0.97562   0.61927   0.51321   0.00000  Uiso   1.00
H244   H     0.94044   0.51467   0.53499   0.00000  Uiso   1.00
H245   H     0.31605   0.32026   0.28857   0.00000  Uiso   1.00
H246   H     0.41250   0.39260   0.35102   0.00000  Uiso   1.00
H247   H     0.31615   0.41607   0.31810   0.00000  Uiso   1.00
H248   H     0.29232   0.56277   0.31579   0.00000  Uiso   1.00
H249   H     0.19233   0.47057   0.31144   0.00000  Uiso   1.00
H250   H     0.20637   0.54501   0.37625   0.00000  Uiso   1.00
H251   H     0.16057   0.60942   0.13137   0.00000  Uiso   1.00
H252   H     0.18262   0.52155   0.14351   0.00000  Uiso   1.00
H253   H     0.27518   0.61824   0.18061   0.00000  Uiso   1.00
H254   H     0.05683   0.47706   1.04231   0.00000  Uiso   1.00
H255   H     0.03751   0.43068   0.95229   0.00000  Uiso   1.00
H256   H    -0.04697   0.36722   1.01149   0.00000  Uiso   1.00
H257   H     0.03103   0.60891   0.91470   0.00000  Uiso   1.00
H258   H     0.03755   0.62437   1.00624   0.00000  Uiso   1.00
H259   H    -0.06238   0.62111   0.94822   0.00000  Uiso   1.00
H260   H     0.89892   0.49169   0.83052   0.00000  Uiso   1.00
H261   H     0.79396   0.40134   0.85144   0.00000  Uiso   1.00
H262   H     0.90173   0.39768   0.84260   0.00000  Uiso   1.00
H263   H     0.13017   0.81632   0.20314   0.00000  Uiso   1.00
H264   H     0.18822   0.92157   0.19632   0.00000  Uiso   1.00
H265   H     0.08961   0.88230   0.24763   0.00000  Uiso   1.00
H266   H    -0.00250   0.73250   1.02829   0.00000  Uiso   1.00
H267   H     0.00406   0.80246   1.09111   0.00000  Uiso   1.00
H268   H     0.08442   0.84408   1.02041   0.00000  Uiso   1.00
H269   H     0.02542   0.96042   0.94950   0.00000  Uiso   1.00
H270   H    -0.08267   0.90137   0.88625   0.00000  Uiso   1.00
H271   H     0.02338   0.89022   0.88623   0.00000  Uiso   1.00
H272   H     0.83580   0.68781   0.90159   0.00000  Uiso   1.00
H273   H     0.78377   0.75659   0.89062   0.00000  Uiso   1.00
H274   H     0.75480   0.69449   0.95966   0.00000  Uiso   1.00
H275   H     0.10249   0.78668   0.59099   0.00000  Uiso   1.00
H276   H     0.10876   0.69254   0.61350   0.00000  Uiso   1.00
H277   H     0.11816   0.72695   0.52093   0.00000  Uiso   1.00
H278   H     0.29788   0.68738   0.60971   0.00000  Uiso   1.00
H279   H     0.26246   0.70837   0.68863   0.00000  Uiso   1.00
H280   H     0.38508   0.77463   0.67299   0.00000  Uiso   1.00
H281   H     0.26950   0.88831   0.70635   0.00000  Uiso   1.00
H282   H     0.24003   0.92722   0.62559   0.00000  Uiso   1.00
H283   H     0.37123   0.94599   0.65426   0.00000  Uiso   1.00
H284   H     0.41016  -0.00796   0.06542   0.00000  Uiso   1.00
H285   H     0.50560   0.08944   0.07505   0.00000  Uiso   1.00
H286   H     0.43178   0.05843   0.14930   0.00000  Uiso   1.00
H287   H     0.59820   0.01474   0.55113   0.00000  Uiso   1.00
H288   H     0.47106   0.00269   0.54233   0.00000  Uiso   1.00
H289   H     0.57848   0.09068   0.50764   0.00000  Uiso   1.00
H290   H     0.66761   1.00301   0.40410   0.00000  Uiso   1.00
H291   H     0.58892   0.89978   0.35961   0.00000  Uiso   1.00
H292   H     0.62820   0.91100   0.45680   0.00000  Uiso   1.00
H293   H     0.21767   0.05242   0.82640   0.00000  Uiso   1.00
H294   H     0.16682   0.06986   0.90636   0.00000  Uiso   1.00
H295   H     0.27212   0.05036   0.91461   0.00000  Uiso   1.00
H296   H     0.34047   0.18690   1.00367   0.00000  Uiso   1.00
H297   H     0.35773   0.28855   0.98951   0.00000  Uiso   1.00
H298   H     0.44620   0.26098   0.97023   0.00000  Uiso   1.00
H299   H     0.26245   0.28817   0.80941   0.00000  Uiso   1.00
H300   H     0.23414   0.28441   0.89788   0.00000  Uiso   1.00
H301   H     0.16086   0.20671   0.83935   0.00000  Uiso   1.00
H302   H     0.61494   0.20274   0.62261   0.00000  Uiso   1.00
H303   H     0.60787   0.10183   0.65072   0.00000  Uiso   1.00
H304   H     0.66078   0.19206   0.71035   0.00000  Uiso   1.00
H305   H     0.54208   0.29071   0.08102   0.00000  Uiso   1.00
H306   H     0.45611   0.19132   0.11544   0.00000  Uiso   1.00
H307   H     0.58121   0.23531   0.14809   0.00000  Uiso   1.00
H308   H     0.40331   0.35096   0.13413   0.00000  Uiso   1.00
H309   H     0.52076   0.42512   0.13122   0.00000  Uiso   1.00
H310   H     0.46578   0.42458   0.20154   0.00000  Uiso   1.00
H311   H     0.67439   0.35612   0.23561   0.00000  Uiso   1.00
H312   H     0.61154   0.30185   0.31389   0.00000  Uiso   1.00
H313   H     0.62391   0.39762   0.29464   0.00000  Uiso   1.00
H314   H     0.55453   0.35159   0.39731   0.00000  Uiso   1.00
H315   H     0.48420   0.33536   0.47536   0.00000  Uiso   1.00
H316   H     0.43288   0.26442   0.38661   0.00000  Uiso   1.00
H317   H     0.53340   0.53044   0.55599   0.00000  Uiso   1.00
H318   H     0.50260   0.42585   0.58336   0.00000  Uiso   1.00
H319   H     0.47849   0.49367   0.63406   0.00000  Uiso   1.00
H320   H     0.45585   0.54108   0.42708   0.00000  Uiso   1.00
H321   H     0.40968   0.59322   0.48636   0.00000  Uiso   1.00
H322   H     0.32824   0.51187   0.42365   0.00000  Uiso   1.00
H323   H     0.28378   0.50891   0.59668   0.00000  Uiso   1.00
H324   H     0.28486   0.41832   0.63758   0.00000  Uiso   1.00
H325   H     0.20867   0.40801   0.55883   0.00000  Uiso   1.00
H326   H     0.39395   0.37479   0.76062   0.00000  Uiso   1.00
H327   H     0.42521   0.33505   0.67310   0.00000  Uiso   1.00
H328   H     0.50826   0.41447   0.73285   0.00000  Uiso   1.00
H329   H     0.24146   0.62966  -0.05288   0.00000  Uiso   1.00
H330   H     0.26398   0.72480   0.00202   0.00000  Uiso   1.00
H331   H     0.25134   0.63854   0.04676   0.00000  Uiso   1.00
H332   H     0.50709   0.67199  -0.05913   0.00000  Uiso   1.00
H333   H     0.40423   0.65418  -0.11969   0.00000  Uiso   1.00
H334   H     0.40522   0.57500  -0.05934   0.00000  Uiso   1.00
H335   H     0.37191   0.57103   0.09057   0.00000  Uiso   1.00
H336   H     0.41144   0.66069   0.14551   0.00000  Uiso   1.00
H337   H     0.49250   0.64183   0.09967   0.00000  Uiso   1.00
H338   H     0.24037   0.75065   0.17068   0.00000  Uiso   1.00
H339   H     0.34216   0.76779   0.12464   0.00000  Uiso   1.00
H340   H     0.29723   0.84114   0.11337   0.00000  Uiso   1.00
H341   H     0.49225   0.78492   0.25466   0.00000  Uiso   1.00
H342   H     0.37185   0.72509   0.26920   0.00000  Uiso   1.00
H343   H     0.43998   0.79406   0.33520   0.00000  Uiso   1.00
H344   H     0.30205   0.80372   0.79439   0.00000  Uiso   1.00
H345   H     0.28382   0.73501   0.86438   0.00000  Uiso   1.00
H346   H     0.39601   0.78569   0.84474   0.00000  Uiso   1.00
H347   H     0.19949   0.80819   0.94154   0.00000  Uiso   1.00
H348   H     0.19868   0.87585   0.86900   0.00000  Uiso   1.00
H349   H     0.24121   0.91464   0.96168   0.00000  Uiso   1.00
H350   H     0.54995   0.67786   0.64999   0.00000  Uiso   1.00
H351   H     0.43767   0.60936   0.61245   0.00000  Uiso   1.00
H352   H     0.45044   0.69247   0.66939   0.00000  Uiso   1.00
H353   H     0.62653   0.90569   0.57664   0.00000  Uiso   1.00
H354   H     0.62083   0.85308   0.65488   0.00000  Uiso   1.00
H355   H     0.51782   0.87518   0.62376   0.00000  Uiso   1.00
H356   H     0.52599   0.97411   0.70590   0.00000  Uiso   1.00
H357   H     0.42881   0.89055   0.74085   0.00000  Uiso   1.00
H358   H     0.54773   0.92070   0.78234   0.00000  Uiso   1.00
H359   H     0.65466   0.73743   0.55071   0.00000  Uiso   1.00
H360   H     0.62188   0.78888   0.47489   0.00000  Uiso   1.00
H361   H     0.55670   0.68200   0.47379   0.00000  Uiso   1.00
H362   H     0.80892   0.94609   0.22501   0.00000  Uiso   1.00
H363   H     0.70452   0.96796   0.19355   0.00000  Uiso   1.00
H364   H     0.79414   1.02933   0.26024   0.00000  Uiso   1.00
H365   H     1.04615   0.14071   0.45856   0.00000  Uiso   1.00
H366   H     0.98416   0.09805   0.53643   0.00000  Uiso   1.00
H367   H     1.01324   0.19951   0.52274   0.00000  Uiso   1.00
H368   H     0.74779   1.04123   0.53926   0.00000  Uiso   1.00
H369   H     0.74055   1.11883   0.48583   0.00000  Uiso   1.00
H370   H     0.82869   1.14309   0.56574   0.00000  Uiso   1.00
H371   H     0.68030   0.00918   0.71061   0.00000  Uiso   1.00
H372   H     0.77942   0.10882   0.71292   0.00000  Uiso   1.00
H373   H     0.69141   0.09798   0.76044   0.00000  Uiso   1.00
H374   H     0.76854   0.22172   0.85025   0.00000  Uiso   1.00
H375   H     0.77455   0.28841   0.92374   0.00000  Uiso   1.00
H376   H     0.67079   0.25262   0.84948   0.00000  Uiso   1.00
H377   H     0.49405   0.11496   0.96960   0.00000  Uiso   1.00
H378   H     0.55174   0.21148   0.92140   0.00000  Uiso   1.00
H379   H     0.58283   0.20529   1.01215   0.00000  Uiso   1.00
H380   H     1.05801   0.36460   0.49126   0.00000  Uiso   1.00
H381   H     0.94014   0.27884   0.49236   0.00000  Uiso   1.00
H382   H     0.97036   0.37933   0.52811   0.00000  Uiso   1.00
H383   H     0.77050   0.28886   0.44033   0.00000  Uiso   1.00
H384   H     0.76709   0.32149   0.34710   0.00000  Uiso   1.00
H385   H     0.79505   0.39142   0.42096   0.00000  Uiso   1.00
H386   H     0.84254   0.36054   0.57465   0.00000  Uiso   1.00
H387   H     0.78067   0.31500   0.65700   0.00000  Uiso   1.00
H388   H     0.85881   0.43003   0.64775   0.00000  Uiso   1.00
H389   H     0.72647   0.46787   0.47294   0.00000  Uiso   1.00
H390   H     0.77183   0.52161   0.56342   0.00000  Uiso   1.00
H391   H     0.64521   0.46974   0.52653   0.00000  Uiso   1.00
H392   H     0.65451   0.33562   0.68403   0.00000  Uiso   1.00
H393   H     0.55530   0.33391   0.63329   0.00000  Uiso   1.00
H394   H     0.65301   0.43719   0.66822   0.00000  Uiso   1.00
H395   H     0.75634   0.53266   0.89979   0.00000  Uiso   1.00
H396   H     0.65241   0.53492   0.84622   0.00000  Uiso   1.00
H397   H     0.71090   0.48039   0.81452   0.00000  Uiso   1.00
H398   H     0.42276   0.37778   0.88116   0.00000  Uiso   1.00
H399   H     0.50345   0.48195   0.89811   0.00000  Uiso   1.00
H400   H     0.47431   0.40941   0.97136   0.00000  Uiso   1.00
H401   H     0.62982   0.51954   0.21507   0.00000  Uiso   1.00
H402   H     0.65318   0.62346   0.18658   0.00000  Uiso   1.00
H403   H     0.75051   0.61150   0.22853   0.00000  Uiso   1.00
H404   H     0.83928   0.64913   0.04275   0.00000  Uiso   1.00
H405   H     0.87464   0.66683   0.13768   0.00000  Uiso   1.00
H406   H     0.80593   0.71146   0.10049   0.00000  Uiso   1.00
H407   H     0.54806   0.53153   0.04646   0.00000  Uiso   1.00
H408   H     0.64172   0.57394  -0.01194   0.00000  Uiso   1.00
H409   H     0.62297   0.63906   0.04888   0.00000  Uiso   1.00
H410   H     0.74144   0.81018   0.13411   0.00000  Uiso   1.00
H411   H     0.65120   0.77576   0.06005   0.00000  Uiso   1.00
H412   H     0.67115   0.86451   0.11086   0.00000  Uiso   1.00
H413   H     0.94375   0.98250   0.30092   0.00000  Uiso   1.00
H414   H     0.96024   0.90796   0.35328   0.00000  Uiso   1.00
H415   H     0.98789   1.01262   0.39069   0.00000  Uiso   1.00
H416   H     0.69011   0.87925   0.30514   0.00000  Uiso   1.00
H417   H     0.67284   0.80209   0.36791   0.00000  Uiso   1.00
H418   H     0.73282   0.80937   0.29209   0.00000  Uiso   1.00
H419   H     0.92038   0.90656   0.50425   0.00000  Uiso   1.00
H420   H     0.82229   0.81145   0.47068   0.00000  Uiso   1.00
H421   H     0.79989   0.88889   0.51676   0.00000  Uiso   1.00
H422   H     0.53173   0.78356   0.86045   0.00000  Uiso   1.00
H423   H     0.63191   0.75633   0.88463   0.00000  Uiso   1.00
H424   H     0.62280   0.81768   0.80707   0.00000  Uiso   1.00
H425   H     0.77704   0.95957   0.63744   0.00000  Uiso   1.00
H426   H     0.89378   0.99284   0.60818   0.00000  Uiso   1.00
H427   H     0.87188   1.06911   0.65782   0.00000  Uiso   1.00
H428   H     0.75202   0.81263   0.71226   0.00000  Uiso   1.00
H429   H     0.84286   0.82161   0.78661   0.00000  Uiso   1.00
H430   H     0.86751   0.82068   0.69640   0.00000  Uiso   1.00
H431   H     1.03530   0.96117   0.72095   0.00000  Uiso   1.00
H432   H     1.03089   0.99323   0.81312   0.00000  Uiso   1.00
H433   H     1.04329   1.06063   0.73718   0.00000  Uiso   1.00
loop_
_geom_bond_atom_site_label_1
_geom_bond_atom_site_label_2
_geom_bond_distance
_geom_bond_site_symmetry_2
_ccdc_geom_bond_type
Si1    C52     1.880   .     S
Si1    O92     1.597   .     S
Si1    C53     1.860   1_545 S
Si1    C54     1.783   1_545 S
Si2    O56     1.654   .     S
Si2    O63     1.561   .     S
Si2    O141    1.572   1_455 S
Si2    O149    1.650   1_455 S
Si3    O57     1.600   .     S
Si3    O96     1.646   .     S
Si3    C55     1.911   1_545 S
Si3    O84     1.632   1_545 S
Si4    O56     1.604   .     S
Si4    O57     1.633   .     S
Si4    O70     1.654   .     S
Si4    O93     1.609   .     S
Si5    C58     1.858   .     S
Si5    C59     1.794   .     S
Si5    O145    1.591   1_455 S
Si5    O153    1.619   1_455 S
Si6    C60     1.895   .     S
Si6    C61     1.879   .     S
Si6    C62     1.847   .     S
Si6    O97     1.613   .     S
Si7    O63     1.592   .     S
Si7    C64     1.792   .     S
Si7    C65     1.826   .     S
Si7    C66     1.893   .     S
Si8    C67     1.876   .     S
Si8    O73     1.611   .     S
Si8    C68     1.903   1_455 S
Si8    O160    1.638   1_455 S
Si9    C69     1.840   .     S
Si9    O70     1.565   .     S
Si9    C74     1.801   .     S
Si9    O113    1.610   .     S
Si10   C71     1.887   .     S
Si10   O80     1.596   .     S
Si10   C72     1.835   1_455 S
Si10   O166    1.621   1_455 S
Si11   O73     1.593   .     S
Si11   C75     1.835   .     S
Si11   C76     1.931   .     S
Si11   O81     1.596   .     S
Si12   C77     1.950   .     S
Si12   C78     1.869   .     S
Si12   C79     1.885   1_455 S
Si12   O161    1.649   1_455 S
Si13   O80     1.647   .     S
Si13   O81     1.575   .     S
Si13   O83     1.587   .     S
Si13   O129    1.657   .     S
Si14   C82     1.899   .     S
Si14   O83     1.615   .     S
Si14   O84     1.628   .     S
Si14   O126    1.632   .     S
Si15   C85     1.871   .     S
Si15   C86     1.876   .     S
Si15   C87     1.893   1_455 S
Si15   O178    1.617   1_455 S
Si16   C88     1.886   .     S
Si16   C89     1.804   .     S
Si16   C90     1.804   .     S
Si16   O131    1.588   .     S
Si17   C91     1.840   .     S
Si17   O143    1.647   .     S
Si17   O125    1.645   1_545 S
Si17   O128    1.595   1_545 S
Si18   O92     1.587   .     S
Si18   O93     1.591   .     S
Si18   O98     1.617   .     S
Si18   O106    1.550   .     S
Si19   C94     1.887   .     S
Si19   O99     1.607   .     S
Si19   C95     1.801   1_545 S
Si19   O130    1.639   1_545 S
Si20   O96     1.590   .     S
Si20   O97     1.568   .     S
Si20   O103    1.599   .     S
Si20   O110    1.605   .     S
Si21   O98     1.621   .     S
Si21   O99     1.657   .     S
Si21   O111    1.646   .     S
Si21   O144    1.656   .     S
Si22   O104    1.639   .     S
Si22   O154    1.625   .     S
Si22   O134    1.603   1_545 S
Si22   C139    1.791   1_545 S
Si23   C100    1.948   .     S
Si23   C101    1.851   .     S
Si23   C102    1.827   .     S
Si23   O117    1.586   .     S
Si24   O103    1.647   .     S
Si24   O104    1.607   .     S
Si24   C105    1.820   .     S
Si24   O118    1.598   .     S
Si25   O106    1.593   .     S
Si25   C107    1.814   .     S
Si25   C108    1.859   .     S
Si25   C109    1.889   .     S
Si26   O110    1.613   .     S
Si26   O111    1.609   .     S
Si26   C112    1.839   .     S
Si26   O167    1.571   .     S
Si27   O113    1.576   .     S
Si27   C114    1.853   .     S
Si27   C115    1.920   .     S
Si27   C116    1.819   .     S
Si28   O117    1.606   .     S
Si28   O118    1.625   .     S
Si28   C119    1.899   .     S
Si28   O171    1.602   .     S
Si29   C120    1.863   .     S
Si29   C121    1.856   .     S
Si29   C122    1.866   .     S
Si29   O127    1.610   .     S
Si30   C123    1.875   .     S
Si30   C124    1.872   .     S
Si30   O125    1.597   .     S
Si30   O126    1.609   .     S
Si31   O127    1.594   .     S
Si31   O128    1.621   .     S
Si31   O133    1.605   1_554 S
Si31   O189    1.606   1_554 S
Si32   O129    1.581   .     S
Si32   O130    1.645   .     S
Si32   O131    1.564   .     S
Si32   O136    1.627   .     S
Si33   C132    1.870   .     S
Si33   O133    1.548   .     S
Si33   O134    1.606   .     S
Si33   C135    1.863   .     S
Si34   O136    1.652   .     S
Si34   C137    1.883   .     S
Si34   C138    1.844   .     S
Si34   C140    1.823   .     S
Si35   O141    1.670   .     S
Si35   O146    1.560   .     S
Si35   C142    1.837   1_545 S
Si35   O181    1.592   1_545 S
Si36   O143    1.625   .     S
Si36   O144    1.649   .     S
Si36   O150    1.611   .     S
Si36   O158    1.635   .     S
Si37   O146    1.605   .     S
Si37   O159    1.628   .     S
Si37   O145    1.603   1_554 S
Si37   O155    1.629   1_554 S
Si38   C147    1.849   .     S
Si38   O151    1.574   .     S
Si38   C148    1.833   1_545 S
Si38   O185    1.604   1_545 S
Si39   O149    1.674   .     S
Si39   O150    1.578   .     S
Si39   O151    1.554   .     S
Si39   O164    1.627   .     S
Si40   C152    1.832   .     S
Si40   O153    1.593   .     S
Si40   O188    1.581   1_545 S
Si40   O193    1.617   1_545 S
Si41   O154    1.602   .     S
Si41   O155    1.606   .     S
Si41   C156    1.850   .     S
Si41   C157    1.887   .     S
Si42   O158    1.659   .     S
Si42   O159    1.636   .     S
Si42   O160    1.634   .     S
Si42   O162    1.624   .     S
Si43   O162    1.591   .     S
Si43   O176    1.629   .     S
Si43   O161    1.589   1_554 S
Si43   O172    1.605   1_554 S
Si44   C163    1.811   .     S
Si44   O164    1.671   .     S
Si44   C165    1.860   .     S
Si44   O166    1.629   .     S
Si45   O167    1.571   .     S
Si45   C168    1.919   .     S
Si45   C169    1.851   .     S
Si45   C170    1.838   .     S
Si46   O171    1.608   .     S
Si46   O172    1.626   .     S
Si46   C173    1.905   .     S
Si46   C174    1.881   .     S
Si47   C175    1.841   .     S
Si47   O176    1.635   .     S
Si47   C177    1.818   .     S
Si47   C179    1.837   .     S
Si48   C180    1.813   .     S
Si48   O181    1.586   .     S
Si48   O178    1.619   1_554 S
Si48   O187    1.602   1_554 S
Si49   C182    1.834   .     S
Si49   C183    1.841   .     S
Si49   C184    1.838   .     S
Si49   O185    1.583   .     S
Si50   C186    1.833   .     S
Si50   O187    1.602   .     S
Si50   O188    1.599   .     S
Si50   O189    1.569   .     S
Si51   C190    1.875   .     S
Si51   C191    1.876   .     S
Si51   C192    1.889   .     S
Si51   O193    1.571   .     S
C52    H194    1.065   .     S
C52    H195    1.056   .     S
C52    H196    1.083   .     S
C53    H197    1.121   .     S
C53    H198    1.134   .     S
C53    H199    1.155   .     S
C53    Si1     1.860   1_565 S
C54    H200    1.121   .     S
C54    H201    1.087   .     S
C54    H202    1.142   .     S
C54    Si1     1.783   1_565 S
C55    H203    1.109   .     S
C55    H204    1.063   .     S
C55    H205    1.123   .     S
C55    Si3     1.911   1_565 S
C58    H206    1.078   .     S
C58    H207    1.086   .     S
C58    H208    1.109   .     S
C59    H209    1.140   .     S
C59    H210    1.091   .     S
C59    H211    1.139   .     S
C60    H212    1.130   .     S
C60    H213    1.133   .     S
C60    H214    1.164   .     S
C61    H215    1.125   .     S
C61    H216    1.073   .     S
C61    H217    1.086   .     S
C62    H218    1.111   .     S
C62    H219    1.117   .     S
C62    H220    1.104   .     S
C64    H221    1.180   .     S
C64    H222    1.117   .     S
C64    H223    1.135   .     S
C65    H224    1.082   .     S
C65    H225    1.157   .     S
C65    H226    1.089   .     S
C66    H227    1.107   .     S
C66    H228    1.085   .     S
C66    H229    1.072   .     S
C67    H230    1.028   .     S
C67    H231    1.094   .     S
C67    H232    1.096   .     S
C68    H233    1.096   .     S
C68    H234    1.134   .     S
C68    H235    1.104   .     S
C68    Si8     1.903   1_655 S
C69    H236    1.119   .     S
C69    H237    1.107   .     S
C69    H238    1.111   .     S
C71    H239    1.091   .     S
C71    H240    1.088   .     S
C71    H241    1.125   .     S
C72    H242    1.123   .     S
C72    H243    1.089   .     S
C72    H244    1.080   .     S
C72    Si10    1.835   1_655 S
C74    H245    1.086   .     S
C74    H246    1.096   .     S
C74    H247    1.108   .     S
C75    H248    1.061   .     S
C75    H249    1.028   .     S
C75    H250    1.091   .     S
C76    H251    1.116   .     S
C76    H252    1.112   .     S
C76    H253    1.112   .     S
C77    H254    1.145   .     S
C77    H255    1.073   .     S
C77    H256    1.137   .     S
C78    H257    1.077   .     S
C78    H258    1.078   .     S
C78    H259    1.149   .     S
C79    H260    1.095   .     S
C79    H261    1.098   .     S
C79    H262    1.112   .     S
C79    Si12    1.885   1_655 S
C82    H263    1.088   .     S
C82    H264    1.099   .     S
C82    H265    1.133   .     S
O84    Si3     1.632   1_565 S
C85    H266    1.109   .     S
C85    H267    1.080   .     S
C85    H268    1.154   .     S
C86    H269    1.060   .     S
C86    H270    1.124   .     S
C86    H271    1.073   .     S
C87    H272    1.142   .     S
C87    H273    1.017   .     S
C87    H274    1.124   .     S
C87    Si15    1.893   1_655 S
C88    H275    1.087   .     S
C88    H276    1.120   .     S
C88    H277    1.082   .     S
C89    H278    1.096   .     S
C89    H279    1.070   .     S
C89    H280    1.153   .     S
C90    H281    1.151   .     S
C90    H282    1.177   .     S
C90    H283    1.140   .     S
C91    H284    1.134   .     S
C91    H285    1.071   .     S
C91    H286    1.131   .     S
C94    H287    1.092   .     S
C94    H288    1.176   .     S
C94    H289    1.082   .     S
C95    H290    1.133   .     S
C95    H291    1.103   .     S
C95    H292    1.123   .     S
C95    Si19    1.801   1_565 S
C100   H293    1.087   .     S
C100   H294    1.119   .     S
C100   H295    1.158   .     S
C101   H296    1.100   .     S
C101   H297    1.082   .     S
C101   H298    1.057   .     S
C102   H299    1.092   .     S
C102   H300    1.044   .     S
C102   H301    1.083   .     S
C105   H302    1.146   .     S
C105   H303    1.100   .     S
C105   H304    1.095   .     S
C107   H305    1.125   .     S
C107   H306    1.105   .     S
C107   H307    1.128   .     S
C108   H308    1.093   .     S
C108   H309    1.069   .     S
C108   H310    1.049   .     S
C109   H311    1.135   .     S
C109   H312    1.105   .     S
C109   H313    1.068   .     S
C112   H314    1.134   .     S
C112   H315    1.148   .     S
C112   H316    1.139   .     S
C114   H317    1.110   .     S
C114   H318    1.098   .     S
C114   H319    1.052   .     S
C115   H320    1.143   .     S
C115   H321    1.123   .     S
C115   H322    1.054   .     S
C116   H323    1.134   .     S
C116   H324    1.132   .     S
C116   H325    1.081   .     S
C119   H326    1.168   .     S
C119   H327    1.162   .     S
C119   H328    1.056   .     S
C120   H329    1.156   .     S
C120   H330    1.091   .     S
C120   H331    1.084   .     S
C121   H332    1.064   .     S
C121   H333    1.101   .     S
C121   H334    1.149   .     S
C122   H335    1.098   .     S
C122   H336    1.083   .     S
C122   H337    1.107   .     S
C123   H338    1.137   .     S
C123   H339    1.114   .     S
C123   H340    1.123   .     S
C124   H341    1.112   .     S
C124   H342    1.073   .     S
C124   H343    1.077   .     S
O125   Si17    1.645   1_565 S
O128   Si17    1.595   1_565 S
O130   Si19    1.639   1_565 S
C132   H344    1.078   .     S
C132   H345    1.073   .     S
C132   H346    1.071   .     S
O133   Si31    1.605   1_556 S
O134   Si22    1.603   1_565 S
C135   H347    1.094   .     S
C135   H348    1.102   .     S
C135   H349    1.079   .     S
C137   H350    1.084   .     S
C137   H351    1.083   .     S
C137   H352    1.109   .     S
C138   H353    1.129   .     S
C138   H354    1.081   .     S
C138   H355    1.137   .     S
C139   H356    1.140   .     S
C139   H357    1.083   .     S
C139   H358    1.081   .     S
C139   Si22    1.791   1_565 S
C140   H359    1.135   .     S
C140   H360    1.080   .     S
C140   H361    1.114   .     S
O141   Si2     1.572   1_655 S
C142   H362    1.096   .     S
C142   H363    1.160   .     S
C142   H364    1.115   .     S
C142   Si35    1.837   1_565 S
O145   Si5     1.591   1_655 S
O145   Si37    1.603   1_556 S
C147   H365    1.104   .     S
C147   H366    1.087   .     S
C147   H367    1.127   .     S
C148   H368    1.093   .     S
C148   H369    1.093   .     S
C148   H370    1.138   .     S
C148   Si38    1.833   1_565 S
O149   Si2     1.650   1_655 S
C152   H371    1.054   .     S
C152   H372    1.107   .     S
C152   H373    1.053   .     S
O153   Si5     1.619   1_655 S
O155   Si37    1.629   1_556 S
C156   H374    1.108   .     S
C156   H375    1.149   .     S
C156   H376    1.140   .     S
C157   H377    1.103   .     S
C157   H378    1.077   .     S
C157   H379    1.081   .     S
O160   Si8     1.638   1_655 S
O161   Si12    1.649   1_655 S
O161   Si43    1.589   1_556 S
C163   H380    1.074   .     S
C163   H381    1.104   .     S
C163   H382    1.097   .     S
C165   H383    1.176   .     S
C165   H384    1.079   .     S
C165   H385    1.083   .     S
O166   Si10    1.621   1_655 S
C168   H386    1.109   .     S
C168   H387    1.137   .     S
C168   H388    1.160   .     S
C169   H389    1.092   .     S
C169   H390    1.114   .     S
C169   H391    1.100   .     S
C170   H392    1.079   .     S
C170   H393    1.102   .     S
C170   H394    1.134   .     S
O172   Si43    1.605   1_556 S
C173   H395    1.103   .     S
C173   H396    1.108   .     S
C173   H397    1.096   .     S
C174   H398    1.139   .     S
C174   H399    1.120   .     S
C174   H400    1.121   .     S
C175   H401    1.165   .     S
C175   H402    1.049   .     S
C175   H403    1.129   .     S
C177   H404    1.141   .     S
C177   H405    1.039   .     S
C177   H406    1.107   .     S
O178   Si15    1.617   1_655 S
O178   Si48    1.619   1_556 S
C179   H407    1.112   .     S
C179   H408    1.057   .     S
C179   H409    1.072   .     S
C180   H410    1.096   .     S
C180   H411    1.085   .     S
C180   H412    1.082   .     S
O181   Si35    1.592   1_565 S
C182   H413    1.100   .     S
C182   H414    1.095   .     S
C182   H415    1.105   .     S
C183   H416    1.100   .     S
C183   H417    1.105   .     S
C183   H418    1.128   .     S
C184   H419    1.093   .     S
C184   H420    1.113   .     S
C184   H421    1.116   .     S
O185   Si38    1.604   1_565 S
C186   H422    1.095   .     S
C186   H423    1.171   .     S
C186   H424    1.139   .     S
O187   Si48    1.602   1_556 S
O188   Si40    1.581   1_565 S
O189   Si31    1.606   1_556 S
C190   H425    1.062   .     S
C190   H426    1.124   .     S
C190   H427    1.152   .     S
C191   H428    1.092   .     S
C191   H429    1.114   .     S
C191   H430    1.146   .     S
C192   H431    1.125   .     S
C192   H432    1.132   .     S
C192   H433    1.072   .     S
O193   Si40    1.617   1_565 S
