data_333-11-11-14-15-30-15
_audit_creation_date              2025-03-07
_audit_creation_method            'Materials Studio'
_symmetry_space_group_name_H-M    'P1'
_symmetry_Int_Tables_number       1
_symmetry_cell_setting            triclinic
loop_
_symmetry_equiv_pos_as_xyz
  x,y,z
_cell_length_a                    15.8694
_cell_length_b                    17.6550
_cell_length_c                    19.7770
_cell_angle_alpha                 91.8746
_cell_angle_beta                  91.4917
_cell_angle_gamma                 116.6242
loop_
_atom_site_label
_atom_site_type_symbol
_atom_site_fract_x
_atom_site_fract_y
_atom_site_fract_z
_atom_site_U_iso_or_equiv
_atom_site_adp_type
_atom_site_occupancy
Si1    Si    0.01742   0.36235   0.23510   0.00000  Uiso   1.00
Si2    Si    0.15690   0.23927   0.11822   0.00000  Uiso   1.00
Si3    Si    0.10318   0.10160   0.41438   0.00000  Uiso   1.00
Si4    Si    0.17772   0.41867   0.13218   0.00000  Uiso   1.00
Si5    Si    0.17161   0.50512   0.00387   0.00000  Uiso   1.00
Si6    Si    0.11724   0.55203   0.53984   0.00000  Uiso   1.00
Si7    Si    0.28941   0.60505   0.33685   0.00000  Uiso   1.00
Si8    Si    0.24381   0.32237   0.84777   0.00000  Uiso   1.00
Si9    Si    0.01207   0.50421   0.91156   0.00000  Uiso   1.00
Si10   Si    0.10586   0.53791   0.69274   0.00000  Uiso   1.00
Si11   Si    0.17125   0.64972   0.08373   0.00000  Uiso   1.00
Si12   Si    0.05814   0.87450   0.27553   0.00000  Uiso   1.00
Si13   Si    0.15589   0.77996  -0.01038   0.00000  Uiso   1.00
Si14   Si    0.25506   0.69037   0.45582   0.00000  Uiso   1.00
Si15   Si   -0.05386   0.75594   0.51378   0.00000  Uiso   1.00
Si16   Si    0.16301   0.64383   0.82186   0.00000  Uiso   1.00
Si17   Si   -0.00257   0.79455   0.90664   0.00000  Uiso   1.00
Si18   Si    0.14269   0.84771   0.58308   0.00000  Uiso   1.00
Si19   Si    0.49641  -0.00498   0.04803   0.00000  Uiso   1.00
Si20   Si    0.46410  -0.01757   0.54539   0.00000  Uiso   1.00
Si21   Si    0.42887  -0.10724   0.80013   0.00000  Uiso   1.00
Si22   Si    0.20951   0.11271   1.05016   0.00000  Uiso   1.00
Si23   Si    0.47021   0.38952   0.05585   0.00000  Uiso   1.00
Si24   Si    0.36180   0.56333   0.20727   0.00000  Uiso   1.00
Si25   Si    0.52130   0.56102   0.00658   0.00000  Uiso   1.00
Si26   Si    0.47938   0.49616   0.28830   0.00000  Uiso   1.00
Si27   Si    0.33721   0.50754   0.90612   0.00000  Uiso   1.00
Si28   Si    0.50965   0.69216   0.11069   0.00000  Uiso   1.00
Si29   Si    0.48168   0.81537   0.01623   0.00000  Uiso   1.00
Si30   Si    0.31161   0.80599   0.58179   0.00000  Uiso   1.00
Si31   Si    0.57231   0.86700   0.29499   0.00000  Uiso   1.00
Si32   Si    0.40928   0.61449   0.78416   0.00000  Uiso   1.00
Si33   Si    0.32097   0.77642   0.91587   0.00000  Uiso   1.00
Si34   Si    0.41380   0.75635   0.69618   0.00000  Uiso   1.00
Si35   Si    0.68407   0.14978   0.08082   0.00000  Uiso   1.00
Si36   Si    0.90129  -0.01748   0.35853   0.00000  Uiso   1.00
Si37   Si    0.86464   0.05482   0.84024   0.00000  Uiso   1.00
Si38   Si    0.55444   0.08548   0.81344   0.00000  Uiso   1.00
Si39   Si    0.89827   0.06318   0.68680   0.00000  Uiso   1.00
Si40   Si    0.78520   0.34210   0.05408   0.00000  Uiso   1.00
Si41   Si    0.82842   0.50008  -0.02249   0.00000  Uiso   1.00
Si42   Si    0.97961   0.36639   0.49770   0.00000  Uiso   1.00
Si43   Si    0.67994   0.49959   0.45093   0.00000  Uiso   1.00
Si44   Si    0.67632   0.55468   0.91149   0.00000  Uiso   1.00
Si45   Si    0.83657   0.62712   0.08518   0.00000  Uiso   1.00
Si46   Si    0.68810   0.81146   0.20477   0.00000  Uiso   1.00
Si47   Si    0.86597   0.79019   0.01879   0.00000  Uiso   1.00
Si48   Si    0.83696   0.65421   0.38306   0.00000  Uiso   1.00
Si49   Si    0.52743   0.71518   0.59657   0.00000  Uiso   1.00
Si50   Si    0.84806   0.80469   0.29604   0.00000  Uiso   1.00
Si51   Si    0.81824   0.68839   0.82159   0.00000  Uiso   1.00
C52    C     0.07758   0.35436   0.31104   0.00000  Uiso   1.00
C53    C     0.95124   0.42592   0.24666   0.00000  Uiso   1.00
C54    C     0.92223   0.25292   0.22450   0.00000  Uiso   1.00
C55    C     0.15840   0.19713   0.20287   0.00000  Uiso   1.00
C56    C     0.03099   0.19656   1.08781   0.00000  Uiso   1.00
C57    C     0.21005   0.08605   0.40495   0.00000  Uiso   1.00
C58    C     0.13944   0.20789   0.38185   0.00000  Uiso   1.00
O59    O     0.07969   0.39081   0.16903   0.00000  Uiso   1.00
O60    O     0.20515   0.34058   0.12491   0.00000  Uiso   1.00
O61    O     0.16508   0.44016   0.05695   0.00000  Uiso   1.00
C62    C     1.02301   0.58369   0.52444   0.00000  Uiso   1.00
C63    C     0.16903   0.57928   0.30249   0.00000  Uiso   1.00
C64    C     0.28854   0.51538   0.38136   0.00000  Uiso   1.00
C65    C     0.16890   0.27684   0.92370   0.00000  Uiso   1.00
C66    C     0.31470   0.26335   0.82268   0.00000  Uiso   1.00
O67    O     0.07006   0.48914   0.97187   0.00000  Uiso   1.00
C68    C     0.96015   0.40592   0.86086   0.00000  Uiso   1.00
O69    O     0.15281   0.56790   0.61874   0.00000  Uiso   1.00
C70    C     0.16952   0.30129   0.76871   0.00000  Uiso   1.00
C71    C    -0.01323   0.53510   0.69276   0.00000  Uiso   1.00
C72    C     0.09617   0.43295   0.70852   0.00000  Uiso   1.00
C73    C     0.06687   0.57944   0.13019   0.00000  Uiso   1.00
O74    O     0.21132   0.59327   0.04431   0.00000  Uiso   1.00
C75    C     0.26670   0.72358   0.14384   0.00000  Uiso   1.00
C76    C     0.08630   0.86872   0.36421   0.00000  Uiso   1.00
C77    C     0.11592   0.98229   0.24144   0.00000  Uiso   1.00
O78    O     0.13614   0.69839   0.03083   0.00000  Uiso   1.00
C79    C     0.17517   0.86688   0.04964   0.00000  Uiso   1.00
O80    O     0.19885   0.60345   0.49233   0.00000  Uiso   1.00
O81    O     0.31047   0.67658   0.39761   0.00000  Uiso   1.00
C82    C     0.16808   0.72049   0.41291   0.00000  Uiso   1.00
C83    C    -0.09172   0.83969   0.51959   0.00000  Uiso   1.00
C84    C     0.88097   0.69369   0.58953   0.00000  Uiso   1.00
O85    O     0.07606   0.57653   0.86252   0.00000  Uiso   1.00
O86    O     0.17073   0.59600   0.75327   0.00000  Uiso   1.00
O87    O     0.06912   0.76255   0.94006   0.00000  Uiso   1.00
C88    C     0.06112   0.88348   0.84597   0.00000  Uiso   1.00
O89    O     0.05799   0.79590   0.52855   0.00000  Uiso   1.00
C90    C     0.12982   0.72305   0.78820   0.00000  Uiso   1.00
C91    C     0.08434   0.85480   0.66439   0.00000  Uiso   1.00
C92    C     0.21567   0.95679   0.56251   0.00000  Uiso   1.00
C93    C     0.41384   0.00714  -0.01551   0.00000  Uiso   1.00
C94    C     0.44943   0.99379   0.13110   0.00000  Uiso   1.00
C95    C     0.43268  -0.01647   0.45243   0.00000  Uiso   1.00
C96    C     0.47672   0.08506   0.58701   0.00000  Uiso   1.00
C97    C     0.33262  -0.08856   0.75423   0.00000  Uiso   1.00
C98    C     0.07926   0.02958   1.03937   0.00000  Uiso   1.00
C99    C     0.28765   0.09343   1.11433   0.00000  Uiso   1.00
C100   C     0.26191   0.11299   0.96714   0.00000  Uiso   1.00
O101   O     0.20229   0.19728   1.07086   0.00000  Uiso   1.00
C102   C     0.42047   0.33690   0.13648   0.00000  Uiso   1.00
C103   C     0.37777   0.34794  -0.00940   0.00000  Uiso   1.00
C104   C     0.55695   0.35822   0.02083   0.00000  Uiso   1.00
O105   O     0.26097   0.49977   0.17382   0.00000  Uiso   1.00
O106   O     0.35089   0.61932   0.26959   0.00000  Uiso   1.00
O107   O     0.49955   0.48683   0.05829   0.00000  Uiso   1.00
O108   O     0.41649   0.50977   0.23115   0.00000  Uiso   1.00
C109   C     0.39716   0.40098   0.33389   0.00000  Uiso   1.00
C110   C     0.54400   0.59512   0.34310   0.00000  Uiso   1.00
C111   C     0.57637   0.48017   0.24458   0.00000  Uiso   1.00
O112   O     0.31072   0.42028   0.86578   0.00000  Uiso   1.00
O113   O     0.43375   0.53441   0.95170   0.00000  Uiso   1.00
O114   O     0.24785   0.50034   0.94822   0.00000  Uiso   1.00
O115   O     0.42144   0.62545   0.14825   0.00000  Uiso   1.00
O116   O     0.53805   0.64657   0.04943   0.00000  Uiso   1.00
O117   O     0.49135   0.76838   0.08184   0.00000  Uiso   1.00
O118   O     0.50032   0.90846   0.03495   0.00000  Uiso   1.00
C119   C     0.57560   0.82771   0.95728   0.00000  Uiso   1.00
O120   O     0.31977   0.76462   0.51120   0.00000  Uiso   1.00
O121   O     0.38639   0.90373   0.58250   0.00000  Uiso   1.00
O122   O     0.21142   0.80351   0.59404   0.00000  Uiso   1.00
C123   C     0.46936   0.83890   0.22748   0.00000  Uiso   1.00
C124   C     0.52212   0.81572   0.37295   0.00000  Uiso   1.00
C125   C     0.62563   0.98528   0.29947   0.00000  Uiso   1.00
C126   C     0.58514   0.98628   0.55871   0.00000  Uiso   1.00
O127   O     0.35940   0.58079   0.85364   0.00000  Uiso   1.00
C128   C     0.39328   0.52339   0.72912   0.00000  Uiso   1.00
C129   C     0.53986   0.67511   0.80033   0.00000  Uiso   1.00
O130   O     0.26035   0.69112   0.86925   0.00000  Uiso   1.00
O131   O     0.38275   0.76370   0.97472   0.00000  Uiso   1.00
O132   O     0.39109   0.84579   0.86892   0.00000  Uiso   1.00
O133   O     0.25194   0.80502   0.95218   0.00000  Uiso   1.00
O134   O     0.33363   0.75979   0.64501   0.00000  Uiso   1.00
O135   O     0.37446   0.67418   0.74301   0.00000  Uiso   1.00
O136   O     0.45484   0.83390   0.74991   0.00000  Uiso   1.00
O137   O     0.59292   0.07774   0.04220   0.00000  Uiso   1.00
C138   C     0.77592   0.11407   0.08284   0.00000  Uiso   1.00
C139   C     0.65946   0.16415   0.16805   0.00000  Uiso   1.00
C140   C     0.88330   0.04015   0.28731   0.00000  Uiso   1.00
O141   O     1.01129   0.02383   0.37695   0.00000  Uiso   1.00
C142   C     0.86661   0.14688   0.88981   0.00000  Uiso   1.00
C143   C     0.73756   0.97660   0.83568   0.00000  Uiso   1.00
C144   C     0.93976   1.01353   0.87772   0.00000  Uiso   1.00
O145   O     0.51523  -0.01686   0.81359   0.00000  Uiso   1.00
C146   C     0.62003   0.14595   0.89444   0.00000  Uiso   1.00
C147   C     0.63106   0.12190   0.74178   0.00000  Uiso   1.00
C148   C     0.45488   0.10990   0.80487   0.00000  Uiso   1.00
C149   C     1.08366   0.09959   0.50493   0.00000  Uiso   1.00
C150   C     0.98473   0.02143   0.67768   0.00000  Uiso   1.00
C151   C     0.78042  -0.01968   0.65731   0.00000  Uiso   1.00
O152   O     0.89499   0.08317   0.76578   0.00000  Uiso   1.00
C153   C     0.92856   0.15728   0.63869   0.00000  Uiso   1.00
O154   O     0.71619   0.24056   0.04638   0.00000  Uiso   1.00
C155   C     0.90727   0.35016   0.05366   0.00000  Uiso   1.00
C156   C     0.76385   0.39281   0.13569   0.00000  Uiso   1.00
O157   O     0.92722   0.52959   0.93887   0.00000  Uiso   1.00
O158   O     0.78420   0.39992  -0.00587   0.00000  Uiso   1.00
C159   C     0.89448   0.34775   0.56507   0.00000  Uiso   1.00
C160   C     1.01585   0.28319   0.49524   0.00000  Uiso   1.00
C161   C     0.91575   0.37159   0.41716   0.00000  Uiso   1.00
O162   O     1.07226   0.45364   0.51989   0.00000  Uiso   1.00
C163   C     0.63927   0.41180   0.38402   0.00000  Uiso   1.00
C164   C     0.76018   0.48000   0.50800   0.00000  Uiso   1.00
C165   C     0.57587   0.50165   0.49412   0.00000  Uiso   1.00
C166   C     0.58878   0.47058   0.85159   0.00000  Uiso   1.00
O167   O     0.74429   0.51418   0.93762   0.00000  Uiso   1.00
O168   O     0.61654   0.57678   0.96843   0.00000  Uiso   1.00
C169   C     0.72462   0.58285   0.13212   0.00000  Uiso   1.00
O170   O     0.85288   0.55502   0.04859   0.00000  Uiso   1.00
C171   C     0.93578   0.68482   0.14376   0.00000  Uiso   1.00
C172   C     1.11799   0.81586   0.23324   0.00000  Uiso   1.00
O173   O     0.59861   0.73077   0.16677   0.00000  Uiso   1.00
C174   C     0.73371   0.90117   0.14845   0.00000  Uiso   1.00
O175   O     0.64570   0.83628   0.26817   0.00000  Uiso   1.00
O176   O     0.94389   0.82495   0.96059   0.00000  Uiso   1.00
O177   O     0.83755   0.69140   0.02957   0.00000  Uiso   1.00
C178   C     0.91009   0.85723   0.09572   0.00000  Uiso   1.00
C179   C     0.75743   0.79897   0.98744   0.00000  Uiso   1.00
O180   O     0.74168   0.58687   0.41700   0.00000  Uiso   1.00
C181   C     0.88531   0.60219   0.32106   0.00000  Uiso   1.00
O182   O     0.91913   0.70080   0.44042   0.00000  Uiso   1.00
C183   C     0.41899   0.63485   0.55284   0.00000  Uiso   1.00
C184   C     0.61068   0.66994   0.62548   0.00000  Uiso   1.00
C185   C     0.58254   0.78914   0.53163   0.00000  Uiso   1.00
C186   C     0.84588   1.00174   0.43417   0.00000  Uiso   1.00
O187   O     0.50243   0.76117   0.65660   0.00000  Uiso   1.00
O188   O     0.94697   0.83009   0.26421   0.00000  Uiso   1.00
O189   O     0.76778   0.78663   0.23521   0.00000  Uiso   1.00
O190   O     0.81258   0.72157   0.33979   0.00000  Uiso   1.00
O191   O     0.86149   0.88439   0.34295   0.00000  Uiso   1.00
O192   O     0.74017   0.63710   0.87296   0.00000  Uiso   1.00
C193   C     0.80679   0.60797   0.75107   0.00000  Uiso   1.00
C194   C     0.80585   0.78361   0.79149   0.00000  Uiso   1.00
O195   O     0.92205   0.72015   0.86032   0.00000  Uiso   1.00
H196   H     0.10896   0.42002   0.33796   0.00000  Uiso   1.00
H197   H     0.13903   0.34576   0.29541   0.00000  Uiso   1.00
H198   H     0.02983   0.30915   0.34596   0.00000  Uiso   1.00
H199   H     0.89695   0.39391   0.28242   0.00000  Uiso   1.00
H200   H     0.92205   0.42637   0.19590   0.00000  Uiso   1.00
H201   H     0.99767   0.48950   0.26357   0.00000  Uiso   1.00
H202   H     0.95001   0.20442   0.21880   0.00000  Uiso   1.00
H203   H     0.87759   0.24173   0.17894   0.00000  Uiso   1.00
H204   H     0.87923   0.23829   0.27072   0.00000  Uiso   1.00
H205   H     0.14505   0.13269   0.20316   0.00000  Uiso   1.00
H206   H     0.11624   0.22302   0.23217   0.00000  Uiso   1.00
H207   H     0.23497   0.23303   0.22054   0.00000  Uiso   1.00
H208   H     0.02191   0.17782   1.03156   0.00000  Uiso   1.00
H209   H    -0.00567   0.23464   1.10035   0.00000  Uiso   1.00
H210   H    -0.00537   0.13374   1.11601   0.00000  Uiso   1.00
H211   H     0.26887   0.14080   0.42826   0.00000  Uiso   1.00
H212   H     0.21756   0.07486   0.35028   0.00000  Uiso   1.00
H213   H     0.19872   0.03011   0.43107   0.00000  Uiso   1.00
H214   H     0.17110   0.21696   0.33285   0.00000  Uiso   1.00
H215   H     0.17836   0.26385   0.41893   0.00000  Uiso   1.00
H216   H     0.06704   0.19810   0.37484   0.00000  Uiso   1.00
H217   H     1.05334   0.65185   0.53246   0.00000  Uiso   1.00
H218   H     0.96628   0.54610   0.56313   0.00000  Uiso   1.00
H219   H     0.99485   0.56173   0.47134   0.00000  Uiso   1.00
H220   H     0.15197   0.53015   0.25982   0.00000  Uiso   1.00
H221   H     0.17293   0.63737   0.28170   0.00000  Uiso   1.00
H222   H     0.11397   0.54925   0.33997   0.00000  Uiso   1.00
H223   H     0.35803   0.53379   0.40991   0.00000  Uiso   1.00
H224   H     0.26938   0.46942   0.34064   0.00000  Uiso   1.00
H225   H     0.23134   0.49754   0.41542   0.00000  Uiso   1.00
H226   H     0.17374   0.32750   0.96292   0.00000  Uiso   1.00
H227   H     0.18675   0.23690   0.95538   0.00000  Uiso   1.00
H228   H     0.09374   0.24324   0.90743   0.00000  Uiso   1.00
H229   H     0.36100   0.30021   0.78048   0.00000  Uiso   1.00
H230   H     0.25951   0.19941   0.80640   0.00000  Uiso   1.00
H231   H     0.36009   0.25624   0.86194   0.00000  Uiso   1.00
H232   H     0.90794   0.35704   0.89377   0.00000  Uiso   1.00
H233   H     1.01266   0.38262   0.83859   0.00000  Uiso   1.00
H234   H     0.91573   0.41261   0.81644   0.00000  Uiso   1.00
H235   H     0.14359   0.23427   0.74580   0.00000  Uiso   1.00
H236   H     0.20717   0.33865   0.72680   0.00000  Uiso   1.00
H237   H     0.10325   0.30340   0.77945   0.00000  Uiso   1.00
H238   H    -0.07174   0.47875   0.66448   0.00000  Uiso   1.00
H239   H    -0.00637   0.60096   0.67946   0.00000  Uiso   1.00
H240   H    -0.03397   0.52420   0.74571   0.00000  Uiso   1.00
H241   H     0.13449   0.44117   0.75572   0.00000  Uiso   1.00
H242   H     0.12198   0.40601   0.67023   0.00000  Uiso   1.00
H243   H     0.01956   0.39204   0.70927   0.00000  Uiso   1.00
H244   H     0.07579   0.52492   0.14598   0.00000  Uiso   1.00
H245   H    -0.00290   0.55999   0.10252   0.00000  Uiso   1.00
H246   H     0.06841   0.61317   0.17489   0.00000  Uiso   1.00
H247   H     0.32888   0.75071   0.11167   0.00000  Uiso   1.00
H248   H     0.27276   0.68507   0.18439   0.00000  Uiso   1.00
H249   H     0.25813   0.77823   0.17306   0.00000  Uiso   1.00
H250   H     0.16342   0.90675   0.37270   0.00000  Uiso   1.00
H251   H     0.05493   0.80180   0.37964   0.00000  Uiso   1.00
H252   H     0.05902   0.90978   0.39098   0.00000  Uiso   1.00
H253   H     0.09639   1.02451   0.27497   0.00000  Uiso   1.00
H254   H     0.08440   0.97763   0.19029   0.00000  Uiso   1.00
H255   H     0.18996   1.00166   0.24154   0.00000  Uiso   1.00
H256   H     0.22841   0.87507   0.08856   0.00000  Uiso   1.00
H257   H     0.10470   0.85291   0.06625   0.00000  Uiso   1.00
H258   H     0.20717   0.92954   0.02404   0.00000  Uiso   1.00
H259   H     0.10501   0.66410   0.39004   0.00000  Uiso   1.00
H260   H     0.20235   0.76774   0.37748   0.00000  Uiso   1.00
H261   H     0.14695   0.74955   0.45167   0.00000  Uiso   1.00
H262   H    -0.16834   0.81973   0.51014   0.00000  Uiso   1.00
H263   H    -0.04920   0.89120   0.48610   0.00000  Uiso   1.00
H264   H    -0.07426   0.86410   0.57295   0.00000  Uiso   1.00
H265   H     0.93794   0.67908   0.61022   0.00000  Uiso   1.00
H266   H     0.81147   0.63563   0.58058   0.00000  Uiso   1.00
H267   H     0.88100   0.73954   0.63264   0.00000  Uiso   1.00
H268   H     0.11578   0.87543   0.81762   0.00000  Uiso   1.00
H269   H     0.09605   0.94036   0.87878   0.00000  Uiso   1.00
H270   H     0.01376   0.89028   0.80836   0.00000  Uiso   1.00
H271   H     0.05444   0.70348   0.78998   0.00000  Uiso   1.00
H272   H     0.14156   0.73300   0.73633   0.00000  Uiso   1.00
H273   H     0.16988   0.77950   0.81782   0.00000  Uiso   1.00
H274   H     0.02170   0.86543   0.65341   0.00000  Uiso   1.00
H275   H     0.12676   0.90194   0.70193   0.00000  Uiso   1.00
H276   H     0.05745   0.79841   0.68838   0.00000  Uiso   1.00
H277   H     0.25131   0.95229   0.52053   0.00000  Uiso   1.00
H278   H     0.26860   0.99016   0.60087   0.00000  Uiso   1.00
H279   H     0.17079   0.99015   0.55260   0.00000  Uiso   1.00
H280   H     0.42647  -0.00303  -0.07089   0.00000  Uiso   1.00
H281   H     0.42437   0.07267  -0.00495   0.00000  Uiso   1.00
H282   H     0.34034  -0.04539  -0.00956   0.00000  Uiso   1.00
H283   H     0.39637   0.93135   0.13912   0.00000  Uiso   1.00
H284   H     0.42343   1.04087   0.13268   0.00000  Uiso   1.00
H285   H     0.51499   1.01360   0.16601   0.00000  Uiso   1.00
H286   H     0.48616   0.03594   0.42602   0.00000  Uiso   1.00
H287   H     0.36311  -0.02565   0.44468   0.00000  Uiso   1.00
H288   H     0.43030  -0.07759   0.42741   0.00000  Uiso   1.00
H289   H     0.41681   0.09436   0.56276   0.00000  Uiso   1.00
H290   H     0.55112   0.13735   0.58144   0.00000  Uiso   1.00
H291   H     0.46440   0.07340   0.64207   0.00000  Uiso   1.00
H292   H     0.36885  -0.04937   0.71088   0.00000  Uiso   1.00
H293   H     0.30848  -0.05027   0.78265   0.00000  Uiso   1.00
H294   H     0.27228  -0.14900   0.73077   0.00000  Uiso   1.00
H295   H     0.07324  -0.02873   1.02037   0.00000  Uiso   1.00
H296   H     0.04300   0.04820   0.99817   0.00000  Uiso   1.00
H297   H     0.04235   0.01980   1.08814   0.00000  Uiso   1.00
H298   H     0.36256   0.12749   1.10338   0.00000  Uiso   1.00
H299   H     0.26066   0.02451   1.12376   0.00000  Uiso   1.00
H300   H     0.28353   0.12390   1.16097   0.00000  Uiso   1.00
H301   H     0.33991   0.14798   0.96840   0.00000  Uiso   1.00
H302   H     0.23310   0.13101   0.92370   0.00000  Uiso   1.00
H303   H     0.23951   0.04282   0.95515   0.00000  Uiso   1.00
H304   H     0.47672   0.32870   0.16572   0.00000  Uiso   1.00
H305   H     0.36590   0.27011   0.12685   0.00000  Uiso   1.00
H306   H     0.38747   0.36993   0.16504   0.00000  Uiso   1.00
H307   H     0.41435   0.37086  -0.05578   0.00000  Uiso   1.00
H308   H     0.32748   0.37147   0.00238   0.00000  Uiso   1.00
H309   H     0.33902   0.27695  -0.01181   0.00000  Uiso   1.00
H310   H     0.54188   0.34566  -0.03371   0.00000  Uiso   1.00
H311   H     0.55114   0.30017   0.04523   0.00000  Uiso   1.00
H312   H     0.63021   0.41115   0.02662   0.00000  Uiso   1.00
H313   H     0.32841   0.35835   0.30931   0.00000  Uiso   1.00
H314   H     0.38493   0.42065   0.38992   0.00000  Uiso   1.00
H315   H     0.42983   0.35990   0.34264   0.00000  Uiso   1.00
H316   H     0.49550   0.60924   0.36883   0.00000  Uiso   1.00
H317   H     0.58032   0.65042   0.31380   0.00000  Uiso   1.00
H318   H     0.59705   0.59679   0.37873   0.00000  Uiso   1.00
H319   H     0.56278   0.48038   0.18756   0.00000  Uiso   1.00
H320   H     0.56626   0.41153   0.25986   0.00000  Uiso   1.00
H321   H     0.64330   0.53325   0.26521   0.00000  Uiso   1.00
H322   H     0.56858   0.85236   0.90840   0.00000  Uiso   1.00
H323   H     0.57477   0.76404   0.95586   0.00000  Uiso   1.00
H324   H     0.64135   0.87262   0.98784   0.00000  Uiso   1.00
H325   H     0.49964   0.86687   0.18018   0.00000  Uiso   1.00
H326   H     0.42015   0.86891   0.24009   0.00000  Uiso   1.00
H327   H     0.42834   0.76922   0.22410   0.00000  Uiso   1.00
H328   H     0.45290   0.80761   0.38282   0.00000  Uiso   1.00
H329   H     0.57177   0.85788   0.41159   0.00000  Uiso   1.00
H330   H     0.51776   0.75002   0.38048   0.00000  Uiso   1.00
H331   H     0.67034   1.00835   0.25700   0.00000  Uiso   1.00
H332   H     0.67232   1.00808   0.34706   0.00000  Uiso   1.00
H333   H     0.56869   1.01028   0.29871   0.00000  Uiso   1.00
H334   H     0.62796   1.05191   0.57785   0.00000  Uiso   1.00
H335   H     0.60606   0.97244   0.51087   0.00000  Uiso   1.00
H336   H     0.58020   0.93536   0.59467   0.00000  Uiso   1.00
H337   H     0.42556   0.48459   0.75143   0.00000  Uiso   1.00
H338   H     0.42643   0.54823   0.68359   0.00000  Uiso   1.00
H339   H     0.32257   0.47647   0.71604   0.00000  Uiso   1.00
H340   H     0.56415   0.73838   0.77691   0.00000  Uiso   1.00
H341   H     0.57523   0.63368   0.78658   0.00000  Uiso   1.00
H342   H     0.54067   0.68160   0.85716   0.00000  Uiso   1.00
H343   H     0.74634   0.05079   0.06126   0.00000  Uiso   1.00
H344   H     0.79703   0.10772   0.13533   0.00000  Uiso   1.00
H345   H     0.83128   0.14879   0.04508   0.00000  Uiso   1.00
H346   H     0.65663   0.11773   0.20545   0.00000  Uiso   1.00
H347   H     0.58481   0.16240   0.16698   0.00000  Uiso   1.00
H348   H     0.70644   0.22604   0.18673   0.00000  Uiso   1.00
H349   H     0.93238   0.04481   0.24798   0.00000  Uiso   1.00
H350   H     0.90466   0.10388   0.30453   0.00000  Uiso   1.00
H351   H     0.81228   0.01587   0.26992   0.00000  Uiso   1.00
H352   H     0.84930   0.19197   0.85835   0.00000  Uiso   1.00
H353   H     0.93513   0.17559   0.91798   0.00000  Uiso   1.00
H354   H     0.80919   0.12154   0.93038   0.00000  Uiso   1.00
H355   H     0.72301   0.91495   0.81198   0.00000  Uiso   1.00
H356   H     0.69419   0.99783   0.80337   0.00000  Uiso   1.00
H357   H     0.71261   0.96474   0.89053   0.00000  Uiso   1.00
H358   H     0.91191   0.97994   0.92620   0.00000  Uiso   1.00
H359   H     1.00917   1.07187   0.89075   0.00000  Uiso   1.00
H360   H     0.94550   0.97651   0.83435   0.00000  Uiso   1.00
H361   H     0.56740   0.14624   0.93168   0.00000  Uiso   1.00
H362   H     0.66213   0.21289   0.88015   0.00000  Uiso   1.00
H363   H     0.66743   0.12464   0.91868   0.00000  Uiso   1.00
H364   H     0.61111   0.06983   0.70500   0.00000  Uiso   1.00
H365   H     0.70332   0.14713   0.76105   0.00000  Uiso   1.00
H366   H     0.62251   0.17483   0.71548   0.00000  Uiso   1.00
H367   H     0.40740   0.07568   0.84375   0.00000  Uiso   1.00
H368   H     0.41904   0.09072   0.75367   0.00000  Uiso   1.00
H369   H     0.47750   0.17670   0.81685   0.00000  Uiso   1.00
H370   H     1.02035   0.10909   0.51306   0.00000  Uiso   1.00
H371   H     1.14338   0.15022   0.53853   0.00000  Uiso   1.00
H372   H     1.07804   0.04042   0.52196   0.00000  Uiso   1.00
H373   H     0.94032  -0.04909   0.66727   0.00000  Uiso   1.00
H374   H     1.02702   0.03520   0.72574   0.00000  Uiso   1.00
H375   H     1.02653   0.04274   0.63240   0.00000  Uiso   1.00
H376   H     0.71942  -0.00950   0.67764   0.00000  Uiso   1.00
H377   H     0.77022  -0.08081   0.67573   0.00000  Uiso   1.00
H378   H     0.77681  -0.02434   0.59961   0.00000  Uiso   1.00
H379   H     0.88737   0.14216   0.59030   0.00000  Uiso   1.00
H380   H     1.00897   0.19137   0.64009   0.00000  Uiso   1.00
H381   H     0.91179   0.20501   0.66808   0.00000  Uiso   1.00
H382   H     0.91487   0.30622   0.08836   0.00000  Uiso   1.00
H383   H     0.95400   0.41660   0.07029   0.00000  Uiso   1.00
H384   H     0.92010   0.33448   0.00200   0.00000  Uiso   1.00
H385   H     0.81034   0.46066   0.14234   0.00000  Uiso   1.00
H386   H     0.75426   0.36039   0.18517   0.00000  Uiso   1.00
H387   H     0.69451   0.39540   0.12667   0.00000  Uiso   1.00
H388   H     0.92809   0.34382   0.61454   0.00000  Uiso   1.00
H389   H     0.82458   0.29596   0.55508   0.00000  Uiso   1.00
H390   H     0.87861   0.40444   0.56870   0.00000  Uiso   1.00
H391   H     0.95203   0.22384   0.47436   0.00000  Uiso   1.00
H392   H     1.03497   0.27398   0.54714   0.00000  Uiso   1.00
H393   H     1.07583   0.30866   0.46386   0.00000  Uiso   1.00
H394   H     0.96924   0.41850   0.38578   0.00000  Uiso   1.00
H395   H     0.85765   0.39505   0.42014   0.00000  Uiso   1.00
H396   H     0.87913   0.31126   0.38821   0.00000  Uiso   1.00
H397   H     0.64938   0.36019   0.40259   0.00000  Uiso   1.00
H398   H     0.67302   0.43690   0.33798   0.00000  Uiso   1.00
H399   H     0.56385   0.38433   0.37523   0.00000  Uiso   1.00
H400   H     0.73196   0.47098   0.56254   0.00000  Uiso   1.00
H401   H     0.82939   0.52259   0.51305   0.00000  Uiso   1.00
H402   H     0.75563   0.42019   0.49015   0.00000  Uiso   1.00
H403   H     0.54240   0.52859   0.46297   0.00000  Uiso   1.00
H404   H     0.59534   0.53905   0.54438   0.00000  Uiso   1.00
H405   H     0.52796   0.43756   0.50634   0.00000  Uiso   1.00
H406   H     0.58013   0.40765   0.86310   0.00000  Uiso   1.00
H407   H     0.60585   0.48495   0.79899   0.00000  Uiso   1.00
H408   H     0.51695   0.46747   0.85717   0.00000  Uiso   1.00
H409   H     0.73287   0.55429   0.18070   0.00000  Uiso   1.00
H410   H     0.67424   0.52920   0.10126   0.00000  Uiso   1.00
H411   H     0.69219   0.62962   0.13665   0.00000  Uiso   1.00
H412   H     1.00557   0.70664   0.11924   0.00000  Uiso   1.00
H413   H     0.92991   0.63911   0.18217   0.00000  Uiso   1.00
H414   H     0.93161   0.74031   0.16427   0.00000  Uiso   1.00
H415   H     1.11535   0.81725   0.17797   0.00000  Uiso   1.00
H416   H     1.08501   0.75084   0.24605   0.00000  Uiso   1.00
H417   H     1.19030   0.84539   0.24678   0.00000  Uiso   1.00
H418   H     0.80936   0.93698   0.16267   0.00000  Uiso   1.00
H419   H     0.70433   0.94496   0.15540   0.00000  Uiso   1.00
H420   H     0.72594   0.88174   0.09594   0.00000  Uiso   1.00
H421   H     0.90745   0.91871   0.09380   0.00000  Uiso   1.00
H422   H     0.98354   0.87239   0.11808   0.00000  Uiso   1.00
H423   H     0.86022   0.83000   0.13366   0.00000  Uiso   1.00
H424   H     0.70123   0.76911   1.02385   0.00000  Uiso   1.00
H425   H     0.72855   0.75718   0.94245   0.00000  Uiso   1.00
H426   H     0.77990   0.86584   0.97906   0.00000  Uiso   1.00
H427   H     0.93949   0.65558   0.28890   0.00000  Uiso   1.00
H428   H     0.82708   0.55885   0.28557   0.00000  Uiso   1.00
H429   H     0.91932   0.56922   0.35210   0.00000  Uiso   1.00
H430   H     0.44474   0.58852   0.53389   0.00000  Uiso   1.00
H431   H     0.40757   0.66533   0.50898   0.00000  Uiso   1.00
H432   H     0.36280   0.61276   0.59039   0.00000  Uiso   1.00
H433   H     0.65709   0.66755   0.58059   0.00000  Uiso   1.00
H434   H     0.57588   0.60981   0.65357   0.00000  Uiso   1.00
H435   H     0.65859   0.71685   0.66508   0.00000  Uiso   1.00
H436   H     0.58003   0.74612   0.48834   0.00000  Uiso   1.00
H437   H     0.65913   0.83742   0.54829   0.00000  Uiso   1.00
H438   H     0.53750   0.81901   0.51710   0.00000  Uiso   1.00
H439   H     0.76807   0.96868   0.42533   0.00000  Uiso   1.00
H440   H     0.86328   1.06921   0.44217   0.00000  Uiso   1.00
H441   H     0.86666   0.97759   0.47788   0.00000  Uiso   1.00
H442   H     0.74078   0.59207   0.72277   0.00000  Uiso   1.00
H443   H     0.79539   0.54574   0.76990   0.00000  Uiso   1.00
H444   H     0.86966   0.63675   0.72206   0.00000  Uiso   1.00
H445   H     0.84783   0.81512   0.74680   0.00000  Uiso   1.00
H446   H     0.82883   0.82878   0.83339   0.00000  Uiso   1.00
H447   H     0.72953   0.76985   0.77952   0.00000  Uiso   1.00
loop_
_geom_bond_atom_site_label_1
_geom_bond_atom_site_label_2
_geom_bond_distance
_geom_bond_site_symmetry_2
_ccdc_geom_bond_type
Si1    C52     1.802   .     S
Si1    O59     1.613   .     S
Si1    C53     1.862   1_455 S
Si1    C54     1.844   1_455 S
Si2    C55     1.858   .     S
Si2    O60     1.598   .     S
Si2    C56     1.866   1_554 S
Si2    O101    1.554   1_554 S
Si3    C57     1.849   .     S
Si3    C58     1.843   .     S
Si3    O141    1.626   1_455 S
Si3    C149    1.824   1_455 S
Si4    O59     1.609   .     S
Si4    O60     1.625   .     S
Si4    O61     1.577   .     S
Si4    O105    1.626   .     S
Si5    O61     1.551   .     S
Si5    O74     1.572   .     S
Si5    O67     1.614   1_554 S
Si5    O114    1.684   1_554 S
Si6    O69     1.617   .     S
Si6    O80     1.565   .     S
Si6    C62     1.838   1_455 S
Si6    O162    1.585   1_455 S
Si7    C63     1.858   .     S
Si7    C64     1.831   .     S
Si7    O81     1.629   .     S
Si7    O106    1.629   .     S
Si8    C65     1.905   .     S
Si8    C66     1.909   .     S
Si8    C70     1.856   .     S
Si8    O112    1.593   .     S
Si9    O67     1.589   .     S
Si9    O85     1.604   .     S
Si9    C68     1.805   1_455 S
Si9    O157    1.694   1_455 S
Si10   O69     1.653   .     S
Si10   C71     1.868   .     S
Si10   C72     1.828   .     S
Si10   O86     1.567   .     S
Si11   C73     1.855   .     S
Si11   O74     1.596   .     S
Si11   C75     1.855   .     S
Si11   O78     1.613   .     S
Si12   C76     1.816   .     S
Si12   C77     1.863   .     S
Si12   C172    1.881   1_455 S
Si12   O188    1.583   1_455 S
Si13   O78     1.588   .     S
Si13   C79     1.816   .     S
Si13   O87     1.575   1_554 S
Si13   O133    1.595   1_554 S
Si14   O80     1.597   .     S
Si14   O81     1.544   .     S
Si14   C82     1.880   .     S
Si14   O120    1.617   .     S
Si15   C83     1.830   .     S
Si15   O89     1.603   .     S
Si15   C84     1.921   1_455 S
Si15   O182    1.655   1_455 S
Si16   O85     1.617   .     S
Si16   O86     1.611   .     S
Si16   C90     1.838   .     S
Si16   O130    1.637   .     S
Si17   O87     1.616   .     S
Si17   C88     1.921   .     S
Si17   O176    1.602   1_455 S
Si17   O195    1.566   1_455 S
Si18   O89     1.601   .     S
Si18   C91     1.904   .     S
Si18   C92     1.815   .     S
Si18   O122    1.615   .     S
Si19   C93     1.877   .     S
Si19   O137    1.584   .     S
Si19   C94     1.818   1_545 S
Si19   O118    1.570   1_545 S
Si20   C95     1.895   .     S
Si20   C96     1.889   .     S
Si20   O121    1.603   1_545 S
Si20   C126    1.902   1_545 S
Si21   C97     1.914   .     S
Si21   O145    1.577   .     S
Si21   O132    1.603   1_545 S
Si21   O136    1.604   1_545 S
Si22   C98     1.926   .     S
Si22   C99     1.894   .     S
Si22   C100    1.859   .     S
Si22   O101    1.589   .     S
Si23   C102    1.880   .     S
Si23   C103    1.797   .     S
Si23   C104    1.840   .     S
Si23   O107    1.564   .     S
Si24   O105    1.595   .     S
Si24   O106    1.616   .     S
Si24   O108    1.617   .     S
Si24   O115    1.635   .     S
Si25   O107    1.607   .     S
Si25   O116    1.617   .     S
Si25   O113    1.622   1_554 S
Si25   O168    1.621   1_554 S
Si26   O108    1.583   .     S
Si26   C109    1.880   .     S
Si26   C110    1.868   .     S
Si26   C111    1.908   .     S
Si27   O112    1.584   .     S
Si27   O113    1.623   .     S
Si27   O114    1.621   .     S
Si27   O127    1.604   .     S
Si28   O115    1.591   .     S
Si28   O116    1.615   .     S
Si28   O117    1.616   .     S
Si28   O173    1.641   .     S
Si29   O117    1.603   .     S
Si29   O118    1.563   .     S
Si29   C119    1.856   1_554 S
Si29   O131    1.603   1_554 S
Si30   O120    1.590   .     S
Si30   O121    1.596   .     S
Si30   O122    1.596   .     S
Si30   O134    1.628   .     S
Si31   C123    1.953   .     S
Si31   C124    1.828   .     S
Si31   C125    1.867   .     S
Si31   O175    1.585   .     S
Si32   O127    1.599   .     S
Si32   C128    1.828   .     S
Si32   C129    1.870   .     S
Si32   O135    1.622   .     S
Si33   O130    1.615   .     S
Si33   O131    1.588   .     S
Si33   O132    1.583   .     S
Si33   O133    1.576   .     S
Si34   O134    1.629   .     S
Si34   O135    1.630   .     S
Si34   O136    1.580   .     S
Si34   O187    1.598   .     S
Si35   O137    1.588   .     S
Si35   C138    1.829   .     S
Si35   C139    1.814   .     S
Si35   O154    1.628   .     S
Si36   C140    1.853   .     S
Si36   O141    1.587   .     S
Si36   C186    1.852   1_545 S
Si36   O191    1.571   1_545 S
Si37   C142    1.858   .     S
Si37   O152    1.587   .     S
Si37   C143    1.862   1_545 S
Si37   C144    1.808   1_545 S
Si38   O145    1.626   .     S
Si38   C146    1.896   .     S
Si38   C147    1.830   .     S
Si38   C148    1.820   .     S
Si39   C150    1.835   .     S
Si39   C151    1.848   .     S
Si39   O152    1.598   .     S
Si39   C153    1.819   .     S
Si40   O154    1.628   .     S
Si40   C155    1.878   .     S
Si40   C156    1.930   .     S
Si40   O158    1.594   .     S
Si41   O158    1.633   .     S
Si41   O170    1.616   .     S
Si41   O157    1.634   1_554 S
Si41   O167    1.650   1_554 S
Si42   C159    1.853   .     S
Si42   C160    1.801   .     S
Si42   C161    1.892   .     S
Si42   O162    1.619   .     S
Si43   C163    1.869   .     S
Si43   C164    1.833   .     S
Si43   C165    1.893   .     S
Si43   O180    1.592   .     S
Si44   C166    1.868   .     S
Si44   O167    1.621   .     S
Si44   O168    1.637   .     S
Si44   O192    1.586   .     S
Si45   C169    1.876   .     S
Si45   O170    1.567   .     S
Si45   C171    1.803   .     S
Si45   O177    1.601   .     S
Si46   O173    1.635   .     S
Si46   C174    1.845   .     S
Si46   O175    1.578   .     S
Si46   O189    1.621   .     S
Si47   O177    1.617   .     S
Si47   C178    1.814   .     S
Si47   O176    1.634   1_554 S
Si47   C179    1.888   1_554 S
Si48   O180    1.626   .     S
Si48   C181    1.882   .     S
Si48   O182    1.601   .     S
Si48   O190    1.661   .     S
Si49   C183    1.837   .     S
Si49   C184    1.910   .     S
Si49   C185    1.807   .     S
Si49   O187    1.574   .     S
Si50   O188    1.581   .     S
Si50   O189    1.644   .     S
Si50   O190    1.608   .     S
Si50   O191    1.588   .     S
Si51   O192    1.583   .     S
Si51   C193    1.903   .     S
Si51   C194    1.891   .     S
Si51   O195    1.641   .     S
C52    H196    1.142   .     S
C52    H197    1.102   .     S
C52    H198    1.100   .     S
C53    H199    1.088   .     S
C53    H200    1.096   .     S
C53    H201    1.066   .     S
C53    Si1     1.862   1_655 S
C54    H202    1.129   .     S
C54    H203    1.087   .     S
C54    H204    1.122   .     S
C54    Si1     1.844   1_655 S
C55    H205    1.060   .     S
C55    H206    1.127   .     S
C55    H207    1.128   .     S
C56    H208    1.137   .     S
C56    H209    1.095   .     S
C56    H210    1.165   .     S
C56    Si2     1.866   1_556 S
C57    H211    1.076   .     S
C57    H212    1.112   .     S
C57    H213    1.074   .     S
C58    H214    1.087   .     S
C58    H215    1.130   .     S
C58    H216    1.087   .     S
C62    H217    1.081   .     S
C62    H218    1.171   .     S
C62    H219    1.116   .     S
C62    Si6     1.838   1_655 S
C63    H220    1.126   .     S
C63    H221    1.094   .     S
C63    H222    1.113   .     S
C64    H223    1.129   .     S
C64    H224    1.060   .     S
C64    H225    1.080   .     S
C65    H226    1.139   .     S
C65    H227    1.081   .     S
C65    H228    1.101   .     S
C66    H229    1.140   .     S
C66    H230    1.105   .     S
C66    H231    1.093   .     S
O67    Si5     1.614   1_556 S
C68    H232    1.131   .     S
C68    H233    1.171   .     S
C68    H234    1.154   .     S
C68    Si9     1.805   1_655 S
C70    H235    1.137   .     S
C70    H236    1.090   .     S
C70    H237    1.095   .     S
C71    H238    1.128   .     S
C71    H239    1.158   .     S
C71    H240    1.103   .     S
C72    H241    1.070   .     S
C72    H242    1.065   .     S
C72    H243    1.102   .     S
C73    H244    1.088   .     S
C73    H245    1.122   .     S
C73    H246    1.043   .     S
C75    H247    1.112   .     S
C75    H248    1.098   .     S
C75    H249    1.170   .     S
C76    H250    1.106   .     S
C76    H251    1.114   .     S
C76    H252    1.123   .     S
C77    H253    1.130   .     S
C77    H254    1.101   .     S
C77    H255    1.066   .     S
C79    H256    1.085   .     S
C79    H257    1.094   .     S
C79    H258    1.133   .     S
C82    H259    1.119   .     S
C82    H260    1.065   .     S
C82    H261    1.051   .     S
C83    H262    1.112   .     S
C83    H263    1.111   .     S
C83    H264    1.107   .     S
C84    H265    1.117   .     S
C84    H266    1.124   .     S
C84    H267    1.156   .     S
C84    Si15    1.921   1_655 S
O87    Si13    1.575   1_556 S
C88    H268    1.104   .     S
C88    H269    1.085   .     S
C88    H270    1.091   .     S
C90    H271    1.088   .     S
C90    H272    1.054   .     S
C90    H273    1.056   .     S
C91    H274    1.109   .     S
C91    H275    1.062   .     S
C91    H276    1.029   .     S
C92    H277    1.037   .     S
C92    H278    1.059   .     S
C92    H279    1.126   .     S
C93    H280    1.141   .     S
C93    H281    1.104   .     S
C93    H282    1.131   .     S
C94    H283    1.066   .     S
C94    H284    1.081   .     S
C94    H285    1.141   .     S
C94    Si19    1.818   1_565 S
C95    H286    1.095   .     S
C95    H287    1.048   .     S
C95    H288    1.157   .     S
C96    H289    1.132   .     S
C96    H290    1.138   .     S
C96    H291    1.121   .     S
C97    H292    1.119   .     S
C97    H293    1.067   .     S
C97    H294    1.140   .     S
C98    H295    1.046   .     S
C98    H296    1.125   .     S
C98    H297    1.119   .     S
C99    H298    1.097   .     S
C99    H299    1.118   .     S
C99    H300    1.071   .     S
C100   H301    1.107   .     S
C100   H302    1.085   .     S
C100   H303    1.140   .     S
O101   Si2     1.554   1_556 S
C102   H304    1.116   .     S
C102   H305    1.113   .     S
C102   H306    1.096   .     S
C103   H307    1.088   .     S
C103   H308    1.079   .     S
C103   H309    1.120   .     S
C104   H310    1.092   .     S
C104   H311    1.114   .     S
C104   H312    1.118   .     S
C109   H313    1.098   .     S
C109   H314    1.197   .     S
C109   H315    1.079   .     S
C110   H316    1.048   .     S
C110   H317    1.082   .     S
C110   H318    1.073   .     S
C111   H319    1.143   .     S
C111   H320    1.199   .     S
C111   H321    1.110   .     S
O113   Si25    1.622   1_556 S
O114   Si5     1.684   1_556 S
O118   Si19    1.570   1_565 S
C119   H322    1.096   .     S
C119   H323    1.118   .     S
C119   H324    1.130   .     S
C119   Si29    1.856   1_556 S
O121   Si20    1.603   1_565 S
C123   H325    1.091   .     S
C123   H326    1.151   .     S
C123   H327    1.103   .     S
C124   H328    1.067   .     S
C124   H329    1.079   .     S
C124   H330    1.145   .     S
C125   H331    1.081   .     S
C125   H332    1.126   .     S
C125   H333    1.170   .     S
C126   H334    1.095   .     S
C126   H335    1.067   .     S
C126   H336    1.141   .     S
C126   Si20    1.902   1_565 S
C128   H337    1.118   .     S
C128   H338    1.060   .     S
C128   H339    1.072   .     S
C129   H340    1.126   .     S
C129   H341    1.134   .     S
C129   H342    1.125   .     S
O131   Si29    1.603   1_556 S
O132   Si21    1.603   1_565 S
O133   Si13    1.595   1_556 S
O136   Si21    1.604   1_565 S
C138   H343    1.067   .     S
C138   H344    1.107   .     S
C138   H345    1.134   .     S
C139   H346    1.109   .     S
C139   H347    1.171   .     S
C139   H348    1.056   .     S
C140   H349    1.094   .     S
C140   H350    1.060   .     S
C140   H351    1.053   .     S
O141   Si3     1.626   1_655 S
C142   H352    1.147   .     S
C142   H353    1.098   .     S
C142   H354    1.171   .     S
C143   H355    1.092   .     S
C143   H356    1.117   .     S
C143   H357    1.158   .     S
C143   Si37    1.862   1_565 S
C144   H358    1.136   .     S
C144   H359    1.137   .     S
C144   H360    1.092   .     S
C144   Si37    1.808   1_565 S
C146   H361    1.130   .     S
C146   H362    1.117   .     S
C146   H363    1.088   .     S
C147   H364    1.076   .     S
C147   H365    1.080   .     S
C147   H366    1.142   .     S
C148   H367    1.085   .     S
C148   H368    1.113   .     S
C148   H369    1.083   .     S
C149   H370    1.105   .     S
C149   H371    1.143   .     S
C149   H372    1.074   .     S
C149   Si3     1.824   1_655 S
C150   H373    1.131   .     S
C150   H374    1.104   .     S
C150   H375    1.101   .     S
C151   H376    1.141   .     S
C151   H377    1.093   .     S
C151   H378    1.140   .     S
C153   H379    1.099   .     S
C153   H380    1.140   .     S
C153   H381    1.138   .     S
C155   H382    1.096   .     S
C155   H383    1.103   .     S
C155   H384    1.098   .     S
C156   H385    1.090   .     S
C156   H386    1.129   .     S
C156   H387    1.131   .     S
O157   Si9     1.694   1_655 S
O157   Si41    1.634   1_556 S
C159   H388    1.121   .     S
C159   H389    1.083   .     S
C159   H390    1.137   .     S
C160   H391    1.137   .     S
C160   H392    1.100   .     S
C160   H393    1.076   .     S
C161   H394    1.106   .     S
C161   H395    1.170   .     S
C161   H396    1.090   .     S
O162   Si6     1.585   1_655 S
C163   H397    1.068   .     S
C163   H398    1.073   .     S
C163   H399    1.078   .     S
C164   H400    1.167   .     S
C164   H401    1.015   .     S
C164   H402    1.073   .     S
C165   H403    1.057   .     S
C165   H404    1.130   .     S
C165   H405    1.083   .     S
C166   H406    1.089   .     S
C166   H407    1.091   .     S
C166   H408    1.125   .     S
O167   Si41    1.650   1_556 S
O168   Si25    1.621   1_556 S
C169   H409    1.131   .     S
C169   H410    1.080   .     S
C169   H411    1.155   .     S
C171   H412    1.126   .     S
C171   H413    1.102   .     S
C171   H414    1.078   .     S
C172   H415    1.094   .     S
C172   H416    1.069   .     S
C172   H417    1.048   .     S
C172   Si12    1.881   1_655 S
C174   H418    1.100   .     S
C174   H419    1.074   .     S
C174   H420    1.069   .     S
O176   Si17    1.602   1_655 S
O176   Si47    1.634   1_556 S
C178   H421    1.107   .     S
C178   H422    1.145   .     S
C178   H423    1.065   .     S
C179   H424    1.109   .     S
C179   H425    1.086   .     S
C179   H426    1.089   .     S
C179   Si47    1.888   1_556 S
C181   H427    1.172   .     S
C181   H428    1.109   .     S
C181   H429    1.138   .     S
O182   Si15    1.655   1_655 S
C183   H430    1.124   .     S
C183   H431    1.088   .     S
C183   H432    1.114   .     S
C184   H433    1.180   .     S
C184   H434    1.127   .     S
C184   H435    1.113   .     S
C185   H436    1.113   .     S
C185   H437    1.160   .     S
C185   H438    1.100   .     S
C186   H439    1.110   .     S
C186   H440    1.100   .     S
C186   H441    1.083   .     S
C186   Si36    1.852   1_565 S
O188   Si12    1.583   1_655 S
O191   Si36    1.571   1_565 S
C193   H442    1.089   .     S
C193   H443    1.109   .     S
C193   H444    1.085   .     S
C194   H445    1.125   .     S
C194   H446    1.066   .     S
C194   H447    1.140   .     S
O195   Si17    1.566   1_655 S
