data_333-7-11-18-15-30-19
_audit_creation_date              2025-03-07
_audit_creation_method            'Materials Studio'
_symmetry_space_group_name_H-M    'P1'
_symmetry_Int_Tables_number       1
_symmetry_cell_setting            triclinic
loop_
_symmetry_equiv_pos_as_xyz
  x,y,z
_cell_length_a                    17.9322
_cell_length_b                    16.9533
_cell_length_c                    19.2169
_cell_angle_alpha                 103.7480
_cell_angle_beta                  80.9946
_cell_angle_gamma                 119.6853
loop_
_atom_site_label
_atom_site_type_symbol
_atom_site_fract_x
_atom_site_fract_y
_atom_site_fract_z
_atom_site_U_iso_or_equiv
_atom_site_adp_type
_atom_site_occupancy
Si1    Si    0.16109  -0.00712   0.11635   0.00000  Uiso   1.00
Si2    Si   -0.16514   0.03885   0.18607   0.00000  Uiso   1.00
Si3    Si    0.01528   0.20433   0.18554   0.00000  Uiso   1.00
Si4    Si    0.25003   0.05196   0.80313   0.00000  Uiso   1.00
Si5    Si   -0.01044   0.12952   0.92504   0.00000  Uiso   1.00
Si6    Si   -0.01930   0.46176   0.31240   0.00000  Uiso   1.00
Si7    Si    0.21018   0.56721  -0.00753   0.00000  Uiso   1.00
Si8    Si    0.21962   0.45946   0.40264   0.00000  Uiso   1.00
Si9    Si    0.18178   0.55481   0.30550   0.00000  Uiso   1.00
Si10   Si    0.04966   0.53663   0.75511   0.00000  Uiso   1.00
Si11   Si    0.24744   0.74476   0.09496   0.00000  Uiso   1.00
Si12   Si    0.08407   0.95684   0.26850   0.00000  Uiso   1.00
Si13   Si    0.18925   0.83810   0.02378   0.00000  Uiso   1.00
Si14   Si    0.20306   0.73161   0.41359   0.00000  Uiso   1.00
Si15   Si   -0.22978   0.65507   0.52272   0.00000  Uiso   1.00
Si16   Si    0.21419   0.71235   0.79283   0.00000  Uiso   1.00
Si17   Si    0.00210   0.74416   0.97300   0.00000  Uiso   1.00
Si18   Si    0.52601   0.06001   0.08425   0.00000  Uiso   1.00
Si19   Si    0.51395   0.21003   0.01444   0.00000  Uiso   1.00
Si20   Si    0.62106   0.20067   0.60414   0.00000  Uiso   1.00
Si21   Si    0.53781   0.23332   0.31319   0.00000  Uiso   1.00
Si22   Si    0.46322  -0.02957   0.79474   0.00000  Uiso   1.00
Si23   Si    0.38025   0.17373   0.91308   0.00000  Uiso   1.00
Si24   Si    0.56329   0.16559   0.75936   0.00000  Uiso   1.00
Si25   Si    0.50069   0.39379   0.10565   0.00000  Uiso   1.00
Si26   Si    0.34448   0.61551   0.21123   0.00000  Uiso   1.00
Si27   Si    0.47918   0.52299   0.01747   0.00000  Uiso   1.00
Si28   Si    0.28934   0.13430   0.55236   0.00000  Uiso   1.00
Si29   Si    0.49352   0.29905   0.81032   0.00000  Uiso   1.00
Si30   Si    0.29088   0.49820   0.85631   0.00000  Uiso   1.00
Si31   Si    0.40327   0.27584   0.67264   0.00000  Uiso   1.00
Si32   Si    0.46869   0.71299   0.08662   0.00000  Uiso   1.00
Si33   Si    0.38374   0.92735   0.17069   0.00000  Uiso   1.00
Si34   Si    0.48298   0.85816  -0.01238   0.00000  Uiso   1.00
Si35   Si    0.46831   0.61771   0.80137   0.00000  Uiso   1.00
Si36   Si    0.33507   0.85058   0.90948   0.00000  Uiso   1.00
Si37   Si    0.46185   0.90037   0.63523   0.00000  Uiso   1.00
Si38   Si    0.65604   0.17658   0.20173   0.00000  Uiso   1.00
Si39   Si    0.83928   0.16904  -0.04242   0.00000  Uiso   1.00
Si40   Si    0.71257   0.09131   0.28703   0.00000  Uiso   1.00
Si41   Si    0.70153  -0.16881   0.72325   0.00000  Uiso   1.00
Si42   Si    0.84893   0.00257   0.67108   0.00000  Uiso   1.00
Si43   Si    0.83503   0.36109   0.20612   0.00000  Uiso   1.00
Si44   Si    0.59535   0.53718   0.23009   0.00000  Uiso   1.00
Si45   Si    0.92312   0.58146   0.70497   0.00000  Uiso   1.00
Si46   Si    0.59648   0.49738   0.88727   0.00000  Uiso   1.00
Si47   Si    0.97125   0.74998   0.23132   0.00000  Uiso   1.00
Si48   Si    0.88092   0.73700   0.10411   0.00000  Uiso   1.00
Si49   Si    0.96722   0.97589   0.38828   0.00000  Uiso   1.00
Si50   Si    0.60142   0.80043   0.87299   0.00000  Uiso   1.00
Si51   Si    0.63743   0.71884   0.57570   0.00000  Uiso   1.00
C52    C     0.10070  -0.01123   0.04531   0.00000  Uiso   1.00
C53    C     0.26018   0.10113   0.13287   0.00000  Uiso   1.00
C54    C    -0.23119  -0.03575   0.10435   0.00000  Uiso   1.00
C55    C     0.85550  -0.02732   0.23952   0.00000  Uiso   1.00
O56    O    -0.07074   0.11465   0.15656   0.00000  Uiso   1.00
C57    C     0.11833   0.20133   0.17237   0.00000  Uiso   1.00
C58    C     0.02753   0.29885   0.14685   0.00000  Uiso   1.00
C59    C     0.21946   0.13975   0.79982   0.00000  Uiso   1.00
C60    C     0.27331   0.99682   0.70973   0.00000  Uiso   1.00
C61    C     0.07758   0.17140   0.98477   0.00000  Uiso   1.00
C62    C     0.02785   0.19335   0.85224   0.00000  Uiso   1.00
C63    C     0.95434   0.41594   0.39575   0.00000  Uiso   1.00
C64    C     0.15483   0.47000   0.04248   0.00000  Uiso   1.00
C65    C     0.12334   0.42746   0.46626   0.00000  Uiso   1.00
C66    C     0.00300   0.23926   0.28370   0.00000  Uiso   1.00
C67    C     0.24532   0.36466   0.36457   0.00000  Uiso   1.00
O68    O     0.07980   0.49335   0.28419   0.00000  Uiso   1.00
O69    O     0.20540   0.48992   0.33366   0.00000  Uiso   1.00
C70    C     0.08791   0.49779   0.66565   0.00000  Uiso   1.00
C71    C     0.12339   0.56469   0.95163   0.00000  Uiso   1.00
C72    C     0.97966   0.43266   0.79170   0.00000  Uiso   1.00
C73    C    -0.03425   0.56615   0.35023   0.00000  Uiso   1.00
C74    C     0.20012   0.71208   0.18503   0.00000  Uiso   1.00
O75    O     0.25854   0.66181   0.04386   0.00000  Uiso   1.00
C76    C     0.18255   1.03185   0.32320   0.00000  Uiso   1.00
O77    O     0.10107   0.98195   0.18998   0.00000  Uiso   1.00
O78    O     0.18628   0.75985   0.05602   0.00000  Uiso   1.00
O79    O     0.18734   0.91285   0.08564   0.00000  Uiso   1.00
C80    C     0.16083   0.70995   0.50330   0.00000  Uiso   1.00
O81    O     0.18437   0.63211   0.37403   0.00000  Uiso   1.00
C82    C     0.14785   0.78746   0.38241   0.00000  Uiso   1.00
C83    C     0.32101   0.81076   0.41471   0.00000  Uiso   1.00
C84    C    -0.27129   0.56333   0.57452   0.00000  Uiso   1.00
C85    C    -0.10958   0.72527   0.51581   0.00000  Uiso   1.00
C86    C     0.72705   0.59212   0.43291   0.00000  Uiso   1.00
O87    O     0.13134   0.61401   0.80074   0.00000  Uiso   1.00
C88    C     0.27280   0.69410   0.70761   0.00000  Uiso   1.00
C89    C     0.17260   0.78932   0.78072   0.00000  Uiso   1.00
O90    O     0.10679   0.79344   0.97540   0.00000  Uiso   1.00
C91    C    -0.03399   0.78787   0.90975   0.00000  Uiso   1.00
C92    C     0.15633   0.97762   0.84900   0.00000  Uiso   1.00
C93    C     0.95897   0.61604   0.93803   0.00000  Uiso   1.00
O94    O     0.50550   0.13261   0.05727   0.00000  Uiso   1.00
C95    C     0.62186   0.24386   0.96733   0.00000  Uiso   1.00
C96    C     0.71470   0.17706   0.56974   0.00000  Uiso   1.00
C97    C     0.67555   0.32984   0.62749   0.00000  Uiso   1.00
C98    C     0.55305   0.16633   0.52629   0.00000  Uiso   1.00
C99    C     0.44437   0.24117   0.28346   0.00000  Uiso   1.00
C100   C     0.48962   0.12889   0.35473   0.00000  Uiso   1.00
C101   C     0.60389   0.33147   0.38531   0.00000  Uiso   1.00
C102   C     0.55632  -0.03398   0.81404   0.00000  Uiso   1.00
O103   O     0.32919   0.09073   0.85227   0.00000  Uiso   1.00
O104   O     0.44321   0.16011   0.95553   0.00000  Uiso   1.00
C105   C     0.30409   0.19437   0.97775   0.00000  Uiso   1.00
O106   O     0.56728   0.15452   0.67329   0.00000  Uiso   1.00
O107   O     0.48801   0.07357   0.78849   0.00000  Uiso   1.00
C108   C     0.67253   0.19215   0.77592   0.00000  Uiso   1.00
C109   C     0.39538   0.33490   0.15571   0.00000  Uiso   1.00
O110   O     0.51799   0.30975   0.05785   0.00000  Uiso   1.00
C111   C     0.34099   0.50291   0.18787   0.00000  Uiso   1.00
C112   C     0.41724   0.68537   0.28327   0.00000  Uiso   1.00
O113   O     0.24937   0.59459   0.24263   0.00000  Uiso   1.00
O114   O     0.50708   0.47458   0.06692   0.00000  Uiso   1.00
C115   C     0.30327   0.55829   0.45865   0.00000  Uiso   1.00
C116   C     0.28066   0.02165   0.50521   0.00000  Uiso   1.00
C117   C     0.31987   0.21698   0.49278   0.00000  Uiso   1.00
C118   C     0.18128   0.10871   0.59066   0.00000  Uiso   1.00
O119   O     0.43280   0.26308   0.87669   0.00000  Uiso   1.00
O120   O     0.55476   0.25429   0.79386   0.00000  Uiso   1.00
C121   C     0.23934   0.49042   0.77795   0.00000  Uiso   1.00
C122   C     0.24950   0.37392   0.86988   0.00000  Uiso   1.00
C123   C     0.36971   0.43635   0.99814   0.00000  Uiso   1.00
O124   O     0.27672   0.55720   0.93232   0.00000  Uiso   1.00
O125   O     0.35775   0.18262   0.61481   0.00000  Uiso   1.00
O126   O     0.43392   0.25816   0.74128   0.00000  Uiso   1.00
C127   C     0.49728   0.36579   0.62504   0.00000  Uiso   1.00
O128   O     0.38441   0.66710   0.14291   0.00000  Uiso   1.00
O129   O     0.48632   0.62603   0.04678   0.00000  Uiso   1.00
C130   C     0.56811   0.79422   0.13990   0.00000  Uiso   1.00
O131   O     0.33511   0.84059   0.10663   0.00000  Uiso   1.00
C132   C     0.44548   0.91121   0.23016   0.00000  Uiso   1.00
O133   O     0.44703   1.01524   0.13716   0.00000  Uiso   1.00
C134   C     0.29914   0.94759   0.23087   0.00000  Uiso   1.00
O135   O     0.46325   0.77749   0.03560   0.00000  Uiso   1.00
O136   O     0.52152   0.96778   0.02500   0.00000  Uiso   1.00
O137   O     0.38942   0.54339   0.84102   0.00000  Uiso   1.00
C138   C     0.33263   0.32696   0.69419   0.00000  Uiso   1.00
C139   C     0.52495   0.56178   0.73794   0.00000  Uiso   1.00
O140   O     0.27092   0.75659   0.86025   0.00000  Uiso   1.00
O141   O     0.40092   0.83159   0.94388   0.00000  Uiso   1.00
O142   O     0.39218   0.93302   0.86072   0.00000  Uiso   1.00
O143   O     0.27465   0.87731   0.97232   0.00000  Uiso   1.00
C144   C     0.41585   0.95102   0.58673   0.00000  Uiso   1.00
C145   C     0.43345   0.67321   0.74784   0.00000  Uiso   1.00
C146   C     0.42716   0.78027   0.59088   0.00000  Uiso   1.00
O147   O     0.43122   0.90898   0.71699   0.00000  Uiso   1.00
C148   C     0.58126   0.95975   0.63161   0.00000  Uiso   1.00
O149   O     0.60947   0.10805   0.12891   0.00000  Uiso   1.00
O150   O     0.60462   0.22981   0.24696   0.00000  Uiso   1.00
O151   O     0.91821   0.15515   0.96635   0.00000  Uiso   1.00
C152   C     0.76669   0.14582   0.03478   0.00000  Uiso   1.00
C153   C     0.77352   0.07482   0.88680   0.00000  Uiso   1.00
O154   O     0.78818   0.09197   0.23278   0.00000  Uiso   1.00
O155   O     0.65196   0.11167   0.25092   0.00000  Uiso   1.00
C156   C     0.65558  -0.01396   0.31955   0.00000  Uiso   1.00
C157   C     0.75461   0.18193   0.36627   0.00000  Uiso   1.00
C158   C     0.77695  -0.21699   0.72505   0.00000  Uiso   1.00
C159   C     0.93938  -0.00153   0.89871   0.00000  Uiso   1.00
C160   C     0.95147   0.01120   0.69704   0.00000  Uiso   1.00
C161   C     0.84253  -0.03767   0.57368   0.00000  Uiso   1.00
O162   O     0.76848  -0.06179   0.71312   0.00000  Uiso   1.00
O163   O     0.75879   0.25391   0.19167   0.00000  Uiso   1.00
C164   C     0.87093   0.28371  -0.06804   0.00000  Uiso   1.00
C165   C     0.88959   0.39305   0.11771   0.00000  Uiso   1.00
C166   C     0.78404   0.43430   0.24310   0.00000  Uiso   1.00
O167   O     0.91099   0.38795   0.25450   0.00000  Uiso   1.00
O168   O     0.57012   0.44979   0.16525   0.00000  Uiso   1.00
C169   C     0.70793   0.58462   0.25302   0.00000  Uiso   1.00
C170   C     0.51831   0.51090   0.31085   0.00000  Uiso   1.00
C171   C     0.82773   0.53107   0.76739   0.00000  Uiso   1.00
C172   C     0.86495   0.11770   0.69082   0.00000  Uiso   1.00
C173   C     0.91073   0.49972   0.61457   0.00000  Uiso   1.00
C174   C     0.95195   0.70217   0.69223   0.00000  Uiso   1.00
O175   O     0.99800   0.58660   0.74116   0.00000  Uiso   1.00
O176   O     0.54558   0.40868   0.82378   0.00000  Uiso   1.00
C177   C     0.65028   0.46633   0.93990   0.00000  Uiso   1.00
C178   C     0.67691   0.60233   0.84826   0.00000  Uiso   1.00
O179   O     0.52341   0.51712   0.93970   0.00000  Uiso   1.00
C180   C     0.59656   0.63276   0.19822   0.00000  Uiso   1.00
C181   C     0.91132   0.71304   0.31465   0.00000  Uiso   1.00
C182   C     0.99154   0.65562   0.17703   0.00000  Uiso   1.00
O183   O     1.05608   0.84915   0.25272   0.00000  Uiso   1.00
O184   O     0.96490   0.76330   1.05005   0.00000  Uiso   1.00
O185   O     0.91781   0.76667   0.18345   0.00000  Uiso   1.00
C186   C     0.82586   0.79676   0.09176   0.00000  Uiso   1.00
O187   O     1.01056   0.97483   0.30980   0.00000  Uiso   1.00
C188   C     0.85004   0.89899   0.38890   0.00000  Uiso   1.00
C189   C     1.01548   0.93889   0.44231   0.00000  Uiso   1.00
C190   C     0.98347   1.09760   0.43004   0.00000  Uiso   1.00
O191   O     0.53214   0.69609   0.85889   0.00000  Uiso   1.00
C192   C     0.69217   0.82554   0.92612   0.00000  Uiso   1.00
C193   C     0.80535   0.61205   1.07955   0.00000  Uiso   1.00
O194   O     0.64661   0.83909   0.79928   0.00000  Uiso   1.00
O195   O     0.55610   0.85840   0.92338   0.00000  Uiso   1.00
O196   O     0.72852   0.71896   0.55922   0.00000  Uiso   1.00
C197   C     0.64056   0.78447   0.50656   0.00000  Uiso   1.00
C198   C     0.53858   0.60772   0.56853   0.00000  Uiso   1.00
O199   O     0.64350   0.77585   0.65799   0.00000  Uiso   1.00
H200   H     0.03337  -0.04755   0.05933   0.00000  Uiso   1.00
H201   H     0.11893  -0.05113  -0.00409   0.00000  Uiso   1.00
H202   H     0.12500   0.05911   0.03914   0.00000  Uiso   1.00
H203   H     0.29363   0.11808   0.18356   0.00000  Uiso   1.00
H204   H     0.25282   0.16040   0.12775   0.00000  Uiso   1.00
H205   H     0.30792   0.09441   0.09220   0.00000  Uiso   1.00
H206   H    -0.28254  -0.01980   0.09626   0.00000  Uiso   1.00
H207   H    -0.25902  -0.10662   0.10600   0.00000  Uiso   1.00
H208   H    -0.18384  -0.02414   0.05717   0.00000  Uiso   1.00
H209   H     0.79702  -0.08959   0.24739   0.00000  Uiso   1.00
H210   H     0.88618   0.02778   0.28837   0.00000  Uiso   1.00
H211   H     0.89707  -0.05313   0.20590   0.00000  Uiso   1.00
H212   H     0.16873   0.26181   0.21055   0.00000  Uiso   1.00
H213   H     0.14842   0.20301   0.11740   0.00000  Uiso   1.00
H214   H     0.10363   0.13591   0.18730   0.00000  Uiso   1.00
H215   H     0.09426   0.36031   0.16234   0.00000  Uiso   1.00
H216   H    -0.02630   0.31143   0.16656   0.00000  Uiso   1.00
H217   H     0.02387   0.27806   0.08657   0.00000  Uiso   1.00
H218   H     0.19551   0.16791   0.85111   0.00000  Uiso   1.00
H219   H     0.16670   0.10355   0.76159   0.00000  Uiso   1.00
H220   H     0.27863   0.19531   0.78388   0.00000  Uiso   1.00
H221   H     0.30960   0.96408   0.71902   0.00000  Uiso   1.00
H222   H     0.31494   1.05188   0.67795   0.00000  Uiso   1.00
H223   H     0.21776   0.95291   0.67838   0.00000  Uiso   1.00
H224   H     0.13028   0.16790   0.95096   0.00000  Uiso   1.00
H225   H     0.05733   0.13418   1.03052   0.00000  Uiso   1.00
H226   H     0.10300   0.24550   1.00763   0.00000  Uiso   1.00
H227   H    -0.02984   0.18239   0.82821   0.00000  Uiso   1.00
H228   H     0.06737   0.16639   0.81126   0.00000  Uiso   1.00
H229   H     0.06514   0.26608   0.87460   0.00000  Uiso   1.00
H230   H     1.00274   0.46265   0.42934   0.00000  Uiso   1.00
H231   H     0.95073   0.34723   0.38856   0.00000  Uiso   1.00
H232   H     0.89111   0.40284   0.41461   0.00000  Uiso   1.00
H233   H     0.11319   0.48246   0.08316   0.00000  Uiso   1.00
H234   H     0.20527   0.46839   0.07010   0.00000  Uiso   1.00
H235   H     0.11705   0.40380   0.00588   0.00000  Uiso   1.00
H236   H     0.11670   0.49154   0.48547   0.00000  Uiso   1.00
H237   H     0.12806   0.40312   0.51011   0.00000  Uiso   1.00
H238   H     0.06799   0.37416   0.43549   0.00000  Uiso   1.00
H239   H     0.00018   0.18961   0.31178   0.00000  Uiso   1.00
H240   H    -0.05513   0.25367   0.29479   0.00000  Uiso   1.00
H241   H     0.05902   0.30342   0.29640   0.00000  Uiso   1.00
H242   H     0.30442   0.39479   0.32517   0.00000  Uiso   1.00
H243   H     0.19455   0.30067   0.33456   0.00000  Uiso   1.00
H244   H     0.26191   0.34624   0.40964   0.00000  Uiso   1.00
H245   H     0.10962   0.54776   0.63009   0.00000  Uiso   1.00
H246   H     0.03388   0.43066   0.64183   0.00000  Uiso   1.00
H247   H     0.14607   0.49238   0.67451   0.00000  Uiso   1.00
H248   H     0.07047   0.55704   0.98995   0.00000  Uiso   1.00
H249   H     0.10783   0.51534   0.90135   0.00000  Uiso   1.00
H250   H     0.14833   0.62974   0.93390   0.00000  Uiso   1.00
H251   H     1.01838   0.40678   0.80866   0.00000  Uiso   1.00
H252   H     0.93621   0.37470   0.75028   0.00000  Uiso   1.00
H253   H     0.94159   0.45458   0.83855   0.00000  Uiso   1.00
H254   H    -0.00805   0.61106   0.30842   0.00000  Uiso   1.00
H255   H     0.00020   0.60309   0.39966   0.00000  Uiso   1.00
H256   H    -0.10385   0.54302   0.36910   0.00000  Uiso   1.00
H257   H     0.16134   0.63765   0.16953   0.00000  Uiso   1.00
H258   H     0.15065   0.73495   0.20578   0.00000  Uiso   1.00
H259   H     0.25299   0.73911   0.22195   0.00000  Uiso   1.00
H260   H     0.17293   1.08178   0.36964   0.00000  Uiso   1.00
H261   H     0.23273   1.07380   0.29180   0.00000  Uiso   1.00
H262   H     0.19791   0.98753   0.34596   0.00000  Uiso   1.00
H263   H     0.17671   0.66430   0.51371   0.00000  Uiso   1.00
H264   H     0.09233   0.68612   0.50771   0.00000  Uiso   1.00
H265   H     0.19402   0.77322   0.53922   0.00000  Uiso   1.00
H266   H     0.12538   0.75801   0.32909   0.00000  Uiso   1.00
H267   H     0.19522   0.85560   0.37791   0.00000  Uiso   1.00
H268   H     0.09281   0.78368   0.42181   0.00000  Uiso   1.00
H269   H     0.32686   0.88066   0.44164   0.00000  Uiso   1.00
H270   H     0.34198   0.81519   0.35865   0.00000  Uiso   1.00
H271   H     0.35677   0.79324   0.44347   0.00000  Uiso   1.00
H272   H    -0.24702   0.59188   0.62649   0.00000  Uiso   1.00
H273   H    -0.25140   0.50604   0.54985   0.00000  Uiso   1.00
H274   H    -0.34098   0.53204   0.57518   0.00000  Uiso   1.00
H275   H    -0.08403   0.77036   0.56793   0.00000  Uiso   1.00
H276   H    -0.08052   0.76347   0.46982   0.00000  Uiso   1.00
H277   H    -0.08629   0.67029   0.50921   0.00000  Uiso   1.00
H278   H     0.74499   0.63869   0.39627   0.00000  Uiso   1.00
H279   H     0.65690   0.54954   0.44355   0.00000  Uiso   1.00
H280   H     0.75151   0.54321   0.40994   0.00000  Uiso   1.00
H281   H     0.34326   0.74638   0.71759   0.00000  Uiso   1.00
H282   H     0.24081   0.70247   0.66596   0.00000  Uiso   1.00
H283   H     0.26572   0.62473   0.69772   0.00000  Uiso   1.00
H284   H     0.22467   0.86203   0.79547   0.00000  Uiso   1.00
H285   H     0.11554   0.77460   0.81983   0.00000  Uiso   1.00
H286   H     0.15860   0.76750   0.72450   0.00000  Uiso   1.00
H287   H    -0.00048   0.78602   0.85397   0.00000  Uiso   1.00
H288   H    -0.02729   0.85917   0.93133   0.00000  Uiso   1.00
H289   H    -0.10252   0.73469   0.90141   0.00000  Uiso   1.00
H290   H     0.16352   0.93347   0.87847   0.00000  Uiso   1.00
H291   H     0.10482   0.92778   0.81046   0.00000  Uiso   1.00
H292   H     0.13007   1.02185   0.88711   0.00000  Uiso   1.00
H293   H     0.89273   0.57531   0.91174   0.00000  Uiso   1.00
H294   H     0.95264   0.58253   0.98254   0.00000  Uiso   1.00
H295   H     1.00810   0.60154   0.89914   0.00000  Uiso   1.00
H296   H     0.62841   0.27675   0.92363   0.00000  Uiso   1.00
H297   H     0.62806   0.17990   0.94727   0.00000  Uiso   1.00
H298   H     0.66819   0.29438   1.01354   0.00000  Uiso   1.00
H299   H     0.77587   0.23772   0.56308   0.00000  Uiso   1.00
H300   H     0.69732   0.12489   0.51880   0.00000  Uiso   1.00
H301   H     0.71901   0.14277   0.60767   0.00000  Uiso   1.00
H302   H     0.62917   0.35179   0.66359   0.00000  Uiso   1.00
H303   H     0.69697   0.35747   0.57825   0.00000  Uiso   1.00
H304   H     0.72886   0.35446   0.65873   0.00000  Uiso   1.00
H305   H     0.53706   0.09693   0.49219   0.00000  Uiso   1.00
H306   H     0.59662   0.20945   0.48562   0.00000  Uiso   1.00
H307   H     0.49306   0.17173   0.54134   0.00000  Uiso   1.00
H308   H     0.41652   0.26607   0.32918   0.00000  Uiso   1.00
H309   H     0.39405   0.17461   0.25742   0.00000  Uiso   1.00
H310   H     0.47030   0.28984   0.24357   0.00000  Uiso   1.00
H311   H     0.44617   0.07792   0.31273   0.00000  Uiso   1.00
H312   H     0.45352   0.14048   0.40763   0.00000  Uiso   1.00
H313   H     0.54989   0.12434   0.36169   0.00000  Uiso   1.00
H314   H     0.56352   0.31944   0.43043   0.00000  Uiso   1.00
H315   H     0.62582   0.40276   0.37678   0.00000  Uiso   1.00
H316   H     0.66618   0.33501   0.39286   0.00000  Uiso   1.00
H317   H     0.60840  -0.01826   0.77432   0.00000  Uiso   1.00
H318   H     0.52515  -0.10752   0.81667   0.00000  Uiso   1.00
H319   H     0.58015   0.00842   0.86691   0.00000  Uiso   1.00
H320   H     0.26857   0.22469   0.95624   0.00000  Uiso   1.00
H321   H     0.34597   0.24738   1.01572   0.00000  Uiso   1.00
H322   H     0.25767   0.12765   0.99410   0.00000  Uiso   1.00
H323   H     0.66826   0.17918   0.83295   0.00000  Uiso   1.00
H324   H     0.71921   0.26576   0.76589   0.00000  Uiso   1.00
H325   H     0.69753   0.14590   0.74166   0.00000  Uiso   1.00
H326   H     0.39150   0.37325   0.21272   0.00000  Uiso   1.00
H327   H     0.38602   0.26894   0.16316   0.00000  Uiso   1.00
H328   H     0.34333   0.32567   0.12933   0.00000  Uiso   1.00
H329   H     0.39947   0.51513   0.15934   0.00000  Uiso   1.00
H330   H     0.28552   0.45454   0.15404   0.00000  Uiso   1.00
H331   H     0.33414   0.47901   0.23651   0.00000  Uiso   1.00
H332   H     0.39023   0.68237   0.33850   0.00000  Uiso   1.00
H333   H     0.44562   0.75831   0.27668   0.00000  Uiso   1.00
H334   H     0.46852   0.66203   0.27988   0.00000  Uiso   1.00
H335   H     0.32936   0.54019   0.49608   0.00000  Uiso   1.00
H336   H     0.28743   0.61351   0.48357   0.00000  Uiso   1.00
H337   H     0.35462   0.58910   0.41914   0.00000  Uiso   1.00
H338   H     0.27554   0.01228   0.44737   0.00000  Uiso   1.00
H339   H     0.22205  -0.03754   0.52585   0.00000  Uiso   1.00
H340   H     0.33579   0.01507   0.51590   0.00000  Uiso   1.00
H341   H     0.33277   0.28507   0.52248   0.00000  Uiso   1.00
H342   H     0.27204   0.19653   0.45022   0.00000  Uiso   1.00
H343   H     0.37049   0.21317   0.45839   0.00000  Uiso   1.00
H344   H     0.13850   0.10756   0.55471   0.00000  Uiso   1.00
H345   H     0.18812   0.16524   0.63719   0.00000  Uiso   1.00
H346   H     0.14512   0.04124   0.60924   0.00000  Uiso   1.00
H347   H     0.27793   0.48655   0.72674   0.00000  Uiso   1.00
H348   H     0.23497   0.55507   0.78609   0.00000  Uiso   1.00
H349   H     0.17631   0.42531   0.77733   0.00000  Uiso   1.00
H350   H     0.30357   0.36118   0.86291   0.00000  Uiso   1.00
H351   H     0.20861   0.31616   0.83045   0.00000  Uiso   1.00
H352   H     0.21063   0.36271   0.92500   0.00000  Uiso   1.00
H353   H     0.32943   0.46938   0.99602   0.00000  Uiso   1.00
H354   H     0.34380   0.40476   1.04729   0.00000  Uiso   1.00
H355   H     0.36934   0.37977   0.95839   0.00000  Uiso   1.00
H356   H     0.53736   0.33840   0.59405   0.00000  Uiso   1.00
H357   H     0.53657   0.42139   0.66717   0.00000  Uiso   1.00
H358   H     0.47043   0.39203   0.59554   0.00000  Uiso   1.00
H359   H     0.55912   0.78659   0.19562   0.00000  Uiso   1.00
H360   H     0.58744   0.86595   0.13845   0.00000  Uiso   1.00
H361   H     0.61371   0.77186   0.11972   0.00000  Uiso   1.00
H362   H     0.50931   0.96248   0.22566   0.00000  Uiso   1.00
H363   H     0.44738   0.84407   0.21116   0.00000  Uiso   1.00
H364   H     0.41887   0.91121   0.28616   0.00000  Uiso   1.00
H365   H     0.23896   0.90942   0.19838   0.00000  Uiso   1.00
H366   H     0.32002   1.01831   0.24708   0.00000  Uiso   1.00
H367   H     0.29295   0.92267   0.27898   0.00000  Uiso   1.00
H368   H     0.36344   0.39240   0.73878   0.00000  Uiso   1.00
H369   H     0.27632   0.27555   0.71640   0.00000  Uiso   1.00
H370   H     0.31693   0.34169   0.64498   0.00000  Uiso   1.00
H371   H     0.47793   0.51387   0.69515   0.00000  Uiso   1.00
H372   H     0.54095   0.52555   0.76856   0.00000  Uiso   1.00
H373   H     0.58144   0.60888   0.70792   0.00000  Uiso   1.00
H374   H     0.44396   0.94092   0.53330   0.00000  Uiso   1.00
H375   H     0.44286   1.02628   0.60498   0.00000  Uiso   1.00
H376   H     0.34333   0.90258   0.59037   0.00000  Uiso   1.00
H377   H     0.39770   0.70649   0.78387   0.00000  Uiso   1.00
H378   H     0.39663   0.61927   0.70121   0.00000  Uiso   1.00
H379   H     0.48538   0.72329   0.71843   0.00000  Uiso   1.00
H380   H     0.44560   0.74642   0.62054   0.00000  Uiso   1.00
H381   H     0.46142   0.77824   0.53786   0.00000  Uiso   1.00
H382   H     0.35618   0.73501   0.58047   0.00000  Uiso   1.00
H383   H     0.60827   0.96817   0.57708   0.00000  Uiso   1.00
H384   H     0.60120   0.90998   0.64454   0.00000  Uiso   1.00
H385   H     0.60688   1.02344   0.67145   0.00000  Uiso   1.00
H386   H     0.80271   0.16491   0.08334   0.00000  Uiso   1.00
H387   H     0.71742   0.07225   0.02486   0.00000  Uiso   1.00
H388   H     0.73537   0.19098   0.03602   0.00000  Uiso   1.00
H389   H     0.82266   0.06698   0.84487   0.00000  Uiso   1.00
H390   H     0.73834   0.09706   0.86019   0.00000  Uiso   1.00
H391   H     0.73144   0.00781   0.90208   0.00000  Uiso   1.00
H392   H     0.69707  -0.03805   0.33845   0.00000  Uiso   1.00
H393   H     0.61389  -0.06733   0.27754   0.00000  Uiso   1.00
H394   H     0.60286  -0.01271   0.36383   0.00000  Uiso   1.00
H395   H     0.80242   0.24796   0.34886   0.00000  Uiso   1.00
H396   H     0.79060   0.16743   0.39828   0.00000  Uiso   1.00
H397   H     0.70260   0.18780   0.40418   0.00000  Uiso   1.00
H398   H     0.82250  -0.19409   0.68189   0.00000  Uiso   1.00
H399   H     0.74100  -0.29374   0.71168   0.00000  Uiso   1.00
H400   H     0.81273  -0.18839   0.77371   0.00000  Uiso   1.00
H401   H     0.93195  -0.03388   0.94538   0.00000  Uiso   1.00
H402   H     0.98648  -0.01584   0.86165   0.00000  Uiso   1.00
H403   H     0.87357  -0.03753   0.87813   0.00000  Uiso   1.00
H404   H     0.94432  -0.05942   0.68764   0.00000  Uiso   1.00
H405   H     0.95553   0.02643   0.75611   0.00000  Uiso   1.00
H406   H     1.01238   0.05960   0.67475   0.00000  Uiso   1.00
H407   H     0.91053  -0.00390   0.55231   0.00000  Uiso   1.00
H408   H     0.80254  -0.01579   0.55111   0.00000  Uiso   1.00
H409   H     0.81657  -0.11645   0.55488   0.00000  Uiso   1.00
H410   H     0.93629   0.34361  -0.04705   0.00000  Uiso   1.00
H411   H     0.81170   0.28997  -0.05104   0.00000  Uiso   1.00
H412   H     0.87900   0.27601  -0.12709   0.00000  Uiso   1.00
H413   H     0.94673   0.45282   0.13292   0.00000  Uiso   1.00
H414   H     0.84936   0.40923   0.08948   0.00000  Uiso   1.00
H415   H     0.90872   0.34070   0.08893   0.00000  Uiso   1.00
H416   H     0.72287   0.41332   0.22017   0.00000  Uiso   1.00
H417   H     0.82691   0.50091   0.23172   0.00000  Uiso   1.00
H418   H     0.77217   0.44244   0.30160   0.00000  Uiso   1.00
H419   H     0.74799   0.56064   0.21328   0.00000  Uiso   1.00
H420   H     0.70893   0.55648   0.29836   0.00000  Uiso   1.00
H421   H     0.73730   0.66168   0.27020   0.00000  Uiso   1.00
H422   H     0.54911   0.56478   0.35671   0.00000  Uiso   1.00
H423   H     0.50600   0.44307   0.32416   0.00000  Uiso   1.00
H424   H     0.46209   0.50618   0.30008   0.00000  Uiso   1.00
H425   H     0.76837   0.51097   0.73889   0.00000  Uiso   1.00
H426   H     0.83074   0.58672   0.81115   0.00000  Uiso   1.00
H427   H     0.82217   0.47041   0.78271   0.00000  Uiso   1.00
H428   H     0.84952   0.13943   0.74685   0.00000  Uiso   1.00
H429   H     0.82202   0.11373   0.65550   0.00000  Uiso   1.00
H430   H     0.93456   0.16104   0.67848   0.00000  Uiso   1.00
H431   H     0.97030   0.53950   0.58554   0.00000  Uiso   1.00
H432   H     0.85931   0.49876   0.58907   0.00000  Uiso   1.00
H433   H     0.89930   0.42444   0.61600   0.00000  Uiso   1.00
H434   H     0.94104   0.74536   0.74304   0.00000  Uiso   1.00
H435   H     0.90948   0.69414   0.65449   0.00000  Uiso   1.00
H436   H     1.01785   0.73861   0.67200   0.00000  Uiso   1.00
H437   H     0.70790   0.45918   0.90945   0.00000  Uiso   1.00
H438   H     0.60404   0.39927   0.95604   0.00000  Uiso   1.00
H439   H     0.67146   0.52465   0.98511   0.00000  Uiso   1.00
H440   H     0.73436   0.64056   0.87877   0.00000  Uiso   1.00
H441   H     0.64138   0.63745   0.84643   0.00000  Uiso   1.00
H442   H     0.69198   0.57875   0.79238   0.00000  Uiso   1.00
H443   H     0.62363   0.69881   0.24052   0.00000  Uiso   1.00
H444   H     0.53115   0.61779   0.19170   0.00000  Uiso   1.00
H445   H     0.62767   0.64550   0.14526   0.00000  Uiso   1.00
H446   H     0.95937   0.72249   0.34737   0.00000  Uiso   1.00
H447   H     0.85380   0.64205   0.30603   0.00000  Uiso   1.00
H448   H     0.88601   0.75845   0.34710   0.00000  Uiso   1.00
H449   H     0.93026   0.59618   0.15748   0.00000  Uiso   1.00
H450   H     1.02443   0.63315   0.20197   0.00000  Uiso   1.00
H451   H     1.02437   0.67801   0.12559   0.00000  Uiso   1.00
H452   H     0.79028   0.80386   0.14176   0.00000  Uiso   1.00
H453   H     0.78150   0.75084   0.04519   0.00000  Uiso   1.00
H454   H     0.87058   0.86124   0.07296   0.00000  Uiso   1.00
H455   H     0.82837   0.85337   0.33126   0.00000  Uiso   1.00
H456   H     0.81144   0.93774   0.40732   0.00000  Uiso   1.00
H457   H     0.83237   0.84854   0.42442   0.00000  Uiso   1.00
H458   H     1.08416   0.99039   0.45366   0.00000  Uiso   1.00
H459   H     1.00829   0.86857   0.41292   0.00000  Uiso   1.00
H460   H     0.98487   0.91965   0.49514   0.00000  Uiso   1.00
H461   H     0.92550   1.10433   0.41758   0.00000  Uiso   1.00
H462   H     1.04842   1.14806   0.40578   0.00000  Uiso   1.00
H463   H     0.99300   1.11621   0.48825   0.00000  Uiso   1.00
H464   H     0.65671   0.77984   0.96750   0.00000  Uiso   1.00
H465   H     0.72022   0.90070   0.95356   0.00000  Uiso   1.00
H466   H     0.73303   0.80336   0.88709   0.00000  Uiso   1.00
H467   H     0.74257   0.60252   1.09798   0.00000  Uiso   1.00
H468   H     0.82207   0.56730   1.09925   0.00000  Uiso   1.00
H469   H     0.80203   0.59610   1.02060   0.00000  Uiso   1.00
H470   H     0.57018   0.75748   0.49563   0.00000  Uiso   1.00
H471   H     0.66526   0.75847   0.45758   0.00000  Uiso   1.00
H472   H     0.67142   0.85829   0.52295   0.00000  Uiso   1.00
H473   H     0.51576   0.56988   0.51397   0.00000  Uiso   1.00
H474   H     0.48850   0.61797   0.60663   0.00000  Uiso   1.00
H475   H     0.55481   0.56465   0.59018   0.00000  Uiso   1.00
loop_
_geom_bond_atom_site_label_1
_geom_bond_atom_site_label_2
_geom_bond_distance
_geom_bond_site_symmetry_2
_ccdc_geom_bond_type
Si1    C52     1.840   .     S
Si1    C53     1.815   .     S
Si1    O77     1.627   1_545 S
Si1    O79     1.605   1_545 S
Si2    C54     1.903   .     S
Si2    O56     1.652   .     S
Si2    C55     1.879   1_455 S
Si2    O154    1.564   1_455 S
Si3    O56     1.595   .     S
Si3    C57     1.850   .     S
Si3    C58     1.826   .     S
Si3    C66     1.851   .     S
Si4    C59     1.840   .     S
Si4    O103    1.593   .     S
Si4    C60     1.904   1_545 S
Si4    C92     1.776   1_545 S
Si5    C61     1.839   .     S
Si5    C62     1.812   .     S
Si5    O151    1.589   1_455 S
Si5    C159    1.905   1_455 S
Si6    O68     1.622   .     S
Si6    C73     1.879   .     S
Si6    C63     1.839   1_455 S
Si6    O167    1.610   1_455 S
Si7    C64     1.860   .     S
Si7    O75     1.561   .     S
Si7    C71     1.828   1_554 S
Si7    O124    1.570   1_554 S
Si8    C65     1.870   .     S
Si8    C67     1.844   .     S
Si8    O69     1.628   .     S
Si8    C115    1.837   .     S
Si9    O68     1.656   .     S
Si9    O69     1.581   .     S
Si9    O81     1.610   .     S
Si9    O113    1.582   .     S
Si10   C70     1.844   .     S
Si10   O87     1.609   .     S
Si10   C72     1.816   1_455 S
Si10   O175    1.616   1_455 S
Si11   C74     1.885   .     S
Si11   O75     1.594   .     S
Si11   O78     1.567   .     S
Si11   O131    1.603   .     S
Si12   C76     1.887   .     S
Si12   O77     1.607   .     S
Si12   O183    1.598   1_455 S
Si12   O187    1.554   1_455 S
Si13   O78     1.568   .     S
Si13   O79     1.528   .     S
Si13   O90     1.616   1_554 S
Si13   O143    1.611   1_554 S
Si14   C80     1.816   .     S
Si14   O81     1.564   .     S
Si14   C82     1.903   .     S
Si14   C83     1.861   .     S
Si15   C84     1.822   .     S
Si15   C85     1.877   .     S
Si15   C86     1.855   1_455 S
Si15   O196    1.581   1_455 S
Si16   O87     1.614   .     S
Si16   C88     1.851   .     S
Si16   C89     1.864   .     S
Si16   O140    1.572   .     S
Si17   O90     1.637   .     S
Si17   C91     1.896   .     S
Si17   C93     1.890   1_455 S
Si17   O184    1.555   1_455 S
Si18   O94     1.652   .     S
Si18   O149    1.582   .     S
Si18   O133    1.571   1_545 S
Si18   O136    1.675   1_545 S
Si19   O94     1.643   .     S
Si19   O110    1.669   .     S
Si19   C95     1.869   1_554 S
Si19   O104    1.593   1_554 S
Si20   C96     1.900   .     S
Si20   C97     1.871   .     S
Si20   C98     1.876   .     S
Si20   O106    1.629   .     S
Si21   C99     1.926   .     S
Si21   C100    1.860   .     S
Si21   C101    1.887   .     S
Si21   O150    1.617   .     S
Si22   C102    1.806   .     S
Si22   O107    1.607   .     S
Si22   O142    1.646   1_545 S
Si22   O147    1.607   1_545 S
Si23   O103    1.569   .     S
Si23   O104    1.622   .     S
Si23   C105    1.808   .     S
Si23   O119    1.598   .     S
Si24   O106    1.614   .     S
Si24   O107    1.632   .     S
Si24   C108    1.843   .     S
Si24   O120    1.564   .     S
Si25   C109    1.873   .     S
Si25   O110    1.642   .     S
Si25   O114    1.657   .     S
Si25   O168    1.588   .     S
Si26   C111    1.826   .     S
Si26   C112    1.810   .     S
Si26   O113    1.606   .     S
Si26   O128    1.623   .     S
Si27   O114    1.659   .     S
Si27   O129    1.649   .     S
Si27   C123    1.806   1_554 S
Si27   O179    1.584   1_554 S
Si28   C116    1.849   .     S
Si28   C117    1.839   .     S
Si28   C118    1.832   .     S
Si28   O125    1.617   .     S
Si29   O119    1.569   .     S
Si29   O120    1.576   .     S
Si29   O126    1.630   .     S
Si29   O176    1.588   .     S
Si30   C121    1.833   .     S
Si30   C122    1.926   .     S
Si30   O124    1.625   .     S
Si30   O137    1.549   .     S
Si31   O125    1.603   .     S
Si31   O126    1.646   .     S
Si31   C127    1.907   .     S
Si31   C138    1.811   .     S
Si32   O128    1.668   .     S
Si32   O129    1.646   .     S
Si32   C130    1.895   .     S
Si32   O135    1.677   .     S
Si33   O131    1.626   .     S
Si33   C132    1.858   .     S
Si33   O133    1.574   .     S
Si33   C134    1.880   .     S
Si34   O135    1.692   .     S
Si34   O136    1.642   .     S
Si34   O141    1.620   1_554 S
Si34   O195    1.653   1_554 S
Si35   O137    1.588   .     S
Si35   C139    1.853   .     S
Si35   C145    1.892   .     S
Si35   O191    1.578   .     S
Si36   O140    1.602   .     S
Si36   O141    1.630   .     S
Si36   O142    1.669   .     S
Si36   O143    1.629   .     S
Si37   C144    1.900   .     S
Si37   C146    1.829   .     S
Si37   O147    1.579   .     S
Si37   C148    1.859   .     S
Si38   O149    1.624   .     S
Si38   O150    1.619   .     S
Si38   O155    1.582   .     S
Si38   O163    1.664   .     S
Si39   C152    1.793   .     S
Si39   C164    1.902   .     S
Si39   O151    1.585   1_554 S
Si39   C153    1.843   1_554 S
Si40   O154    1.573   .     S
Si40   O155    1.582   .     S
Si40   C156    1.773   .     S
Si40   C157    1.830   .     S
Si41   C158    1.902   .     S
Si41   O162    1.646   .     S
Si41   O194    1.646   1_545 S
Si41   O199    1.555   1_545 S
Si42   C160    1.907   .     S
Si42   C161    1.834   .     S
Si42   O162    1.555   .     S
Si42   C172    1.778   .     S
Si43   O163    1.633   .     S
Si43   C165    1.879   .     S
Si43   C166    1.839   .     S
Si43   O167    1.584   .     S
Si44   O168    1.609   .     S
Si44   C169    1.849   .     S
Si44   C170    1.888   .     S
Si44   C180    1.853   .     S
Si45   C171    1.869   .     S
Si45   C173    1.913   .     S
Si45   C174    1.915   .     S
Si45   O175    1.563   .     S
Si46   O176    1.643   .     S
Si46   C177    1.814   .     S
Si46   C178    1.887   .     S
Si46   O179    1.645   .     S
Si47   C181    1.839   .     S
Si47   C182    1.856   .     S
Si47   O183    1.626   .     S
Si47   O185    1.585   .     S
Si48   O185    1.624   .     S
Si48   C186    1.799   .     S
Si48   O184    1.616   1_554 S
Si48   C193    1.852   1_554 S
Si49   O187    1.585   .     S
Si49   C188    1.844   .     S
Si49   C189    1.830   .     S
Si49   C190    1.918   .     S
Si50   O191    1.564   .     S
Si50   C192    1.871   .     S
Si50   O194    1.627   .     S
Si50   O195    1.630   .     S
Si51   O196    1.614   .     S
Si51   C197    1.904   .     S
Si51   C198    1.832   .     S
Si51   O199    1.634   .     S
C52    H200    1.072   .     S
C52    H201    1.132   .     S
C52    H202    1.078   .     S
C53    H203    1.127   .     S
C53    H204    1.104   .     S
C53    H205    1.096   .     S
C54    H206    1.121   .     S
C54    H207    1.055   .     S
C54    H208    1.123   .     S
C55    H209    1.080   .     S
C55    H210    1.137   .     S
C55    H211    1.096   .     S
C55    Si2     1.879   1_655 S
C57    H212    1.157   .     S
C57    H213    1.108   .     S
C57    H214    1.105   .     S
C58    H215    1.156   .     S
C58    H216    1.082   .     S
C58    H217    1.130   .     S
C59    H218    1.109   .     S
C59    H219    1.113   .     S
C59    H220    1.073   .     S
C60    H221    1.098   .     S
C60    H222    1.113   .     S
C60    H223    1.072   .     S
C60    Si4     1.904   1_565 S
C61    H224    1.079   .     S
C61    H225    1.114   .     S
C61    H226    1.101   .     S
C62    H227    1.112   .     S
C62    H228    1.143   .     S
C62    H229    1.083   .     S
C63    H230    1.024   .     S
C63    H231    1.110   .     S
C63    H232    1.061   .     S
C63    Si6     1.839   1_655 S
C64    H233    1.053   .     S
C64    H234    1.132   .     S
C64    H235    1.111   .     S
C65    H236    1.120   .     S
C65    H237    1.053   .     S
C65    H238    1.092   .     S
C66    H239    1.080   .     S
C66    H240    1.162   .     S
C66    H241    1.058   .     S
C67    H242    1.164   .     S
C67    H243    1.108   .     S
C67    H244    1.112   .     S
C70    H245    1.096   .     S
C70    H246    1.115   .     S
C70    H247    1.133   .     S
C71    H248    1.079   .     S
C71    H249    1.086   .     S
C71    H250    1.084   .     S
C71    Si7     1.828   1_556 S
C72    H251    1.105   .     S
C72    H252    1.127   .     S
C72    H253    1.146   .     S
C72    Si10    1.816   1_655 S
C73    H254    1.124   .     S
C73    H255    1.093   .     S
C73    H256    1.133   .     S
C74    H257    1.087   .     S
C74    H258    1.119   .     S
C74    H259    1.113   .     S
C76    H260    1.132   .     S
C76    H261    1.039   .     S
C76    H262    1.109   .     S
O77    Si1     1.627   1_565 S
O79    Si1     1.605   1_565 S
C80    H263    1.015   .     S
C80    H264    1.082   .     S
C80    H265    1.061   .     S
C82    H266    1.072   .     S
C82    H267    1.056   .     S
C82    H268    1.131   .     S
C83    H269    1.134   .     S
C83    H270    1.091   .     S
C83    H271    1.087   .     S
C84    H272    1.058   .     S
C84    H273    1.169   .     S
C84    H274    1.089   .     S
C85    H275    1.109   .     S
C85    H276    1.125   .     S
C85    H277    1.171   .     S
C86    H278    1.079   .     S
C86    H279    1.112   .     S
C86    H280    1.096   .     S
C86    Si15    1.855   1_655 S
C88    H281    1.142   .     S
C88    H282    1.126   .     S
C88    H283    1.090   .     S
C89    H284    1.117   .     S
C89    H285    1.127   .     S
C89    H286    1.082   .     S
O90    Si13    1.616   1_556 S
C91    H287    1.146   .     S
C91    H288    1.132   .     S
C91    H289    1.115   .     S
C92    H290    1.103   .     S
C92    H291    1.122   .     S
C92    H292    1.141   .     S
C92    Si4     1.776   1_565 S
C93    H293    1.163   .     S
C93    H294    1.097   .     S
C93    H295    1.147   .     S
C93    Si17    1.890   1_655 S
C95    H296    1.076   .     S
C95    H297    1.115   .     S
C95    H298    1.174   .     S
C95    Si19    1.869   1_556 S
C96    H299    1.086   .     S
C96    H300    1.117   .     S
C96    H301    1.067   .     S
C97    H302    1.147   .     S
C97    H303    1.087   .     S
C97    H304    1.055   .     S
C98    H305    1.120   .     S
C98    H306    1.127   .     S
C98    H307    1.112   .     S
C99    H308    1.046   .     S
C99    H309    1.097   .     S
C99    H310    1.138   .     S
C100   H311    1.097   .     S
C100   H312    1.147   .     S
C100   H313    1.151   .     S
C101   H314    1.029   .     S
C101   H315    1.116   .     S
C101   H316    1.119   .     S
C102   H317    1.074   .     S
C102   H318    1.096   .     S
C102   H319    1.103   .     S
O104   Si19    1.593   1_556 S
C105   H320    1.161   .     S
C105   H321    1.047   .     S
C105   H322    1.107   .     S
C108   H323    1.152   .     S
C108   H324    1.151   .     S
C108   H325    1.122   .     S
C109   H326    1.145   .     S
C109   H327    1.087   .     S
C109   H328    1.057   .     S
C111   H329    1.050   .     S
C111   H330    1.107   .     S
C111   H331    1.071   .     S
C112   H332    1.097   .     S
C112   H333    1.111   .     S
C112   H334    1.156   .     S
C115   H335    1.088   .     S
C115   H336    1.093   .     S
C115   H337    1.091   .     S
C116   H338    1.097   .     S
C116   H339    1.133   .     S
C116   H340    1.103   .     S
C117   H341    1.084   .     S
C117   H342    1.147   .     S
C117   H343    1.056   .     S
C118   H344    1.100   .     S
C118   H345    1.115   .     S
C118   H346    1.115   .     S
C121   H347    1.119   .     S
C121   H348    1.110   .     S
C121   H349    1.122   .     S
C122   H350    1.076   .     S
C122   H351    1.087   .     S
C122   H352    1.174   .     S
C123   H353    1.121   .     S
C123   H354    1.119   .     S
C123   H355    1.073   .     S
C123   Si27    1.806   1_556 S
O124   Si7     1.570   1_556 S
C127   H356    1.073   .     S
C127   H357    1.095   .     S
C127   H358    1.081   .     S
C130   H359    1.086   .     S
C130   H360    1.093   .     S
C130   H361    1.049   .     S
C132   H362    1.045   .     S
C132   H363    1.126   .     S
C132   H364    1.107   .     S
O133   Si18    1.571   1_565 S
C134   H365    1.140   .     S
C134   H366    1.044   .     S
C134   H367    1.074   .     S
O136   Si18    1.675   1_565 S
C138   H368    1.166   .     S
C138   H369    1.064   .     S
C138   H370    1.141   .     S
C139   H371    1.126   .     S
C139   H372    1.098   .     S
C139   H373    1.110   .     S
O141   Si34    1.620   1_556 S
O142   Si22    1.646   1_565 S
O143   Si13    1.611   1_556 S
C144   H374    1.085   .     S
C144   H375    1.102   .     S
C144   H376    1.145   .     S
C145   H377    1.115   .     S
C145   H378    1.128   .     S
C145   H379    1.090   .     S
C146   H380    1.080   .     S
C146   H381    1.107   .     S
C146   H382    1.135   .     S
O147   Si22    1.607   1_565 S
C148   H383    1.094   .     S
C148   H384    1.152   .     S
C148   H385    1.090   .     S
O151   Si5     1.589   1_655 S
O151   Si39    1.585   1_556 S
C152   H386    1.110   .     S
C152   H387    1.105   .     S
C152   H388    1.147   .     S
C153   H389    1.134   .     S
C153   H390    1.109   .     S
C153   H391    1.089   .     S
C153   Si39    1.843   1_556 S
O154   Si2     1.564   1_655 S
C156   H392    1.144   .     S
C156   H393    1.096   .     S
C156   H394    1.174   .     S
C157   H395    1.112   .     S
C157   H396    1.100   .     S
C157   H397    1.120   .     S
C158   H398    1.064   .     S
C158   H399    1.112   .     S
C158   H400    1.089   .     S
C159   H401    1.117   .     S
C159   H402    1.101   .     S
C159   H403    1.113   .     S
C159   Si5     1.905   1_655 S
C160   H404    1.111   .     S
C160   H405    1.109   .     S
C160   H406    1.088   .     S
C161   H407    1.117   .     S
C161   H408    1.130   .     S
C161   H409    1.157   .     S
C164   H410    1.158   .     S
C164   H411    1.110   .     S
C164   H412    1.106   .     S
C165   H413    1.042   .     S
C165   H414    1.131   .     S
C165   H415    1.105   .     S
C166   H416    1.102   .     S
C166   H417    1.058   .     S
C166   H418    1.099   .     S
O167   Si6     1.610   1_655 S
C169   H419    1.111   .     S
C169   H420    1.095   .     S
C169   H421    1.123   .     S
C170   H422    1.089   .     S
C170   H423    1.143   .     S
C170   H424    1.021   .     S
C171   H425    1.133   .     S
C171   H426    1.089   .     S
C171   H427    1.090   .     S
C172   H428    1.091   .     S
C172   H429    1.072   .     S
C172   H430    1.112   .     S
C173   H431    1.089   .     S
C173   H432    1.102   .     S
C173   H433    1.195   .     S
C174   H434    1.127   .     S
C174   H435    1.071   .     S
C174   H436    1.085   .     S
O175   Si10    1.616   1_655 S
C177   H437    1.151   .     S
C177   H438    1.109   .     S
C177   H439    1.095   .     S
C178   H440    1.083   .     S
C178   H441    1.074   .     S
C178   H442    1.094   .     S
O179   Si27    1.584   1_556 S
C180   H443    1.141   .     S
C180   H444    1.092   .     S
C180   H445    1.096   .     S
C181   H446    1.072   .     S
C181   H447    1.126   .     S
C181   H448    1.103   .     S
C182   H449    1.103   .     S
C182   H450    1.059   .     S
C182   H451    1.115   .     S
O183   Si12    1.598   1_655 S
O184   Si17    1.555   1_655 S
O184   Si48    1.616   1_556 S
C186   H452    1.084   .     S
C186   H453    1.148   .     S
C186   H454    1.094   .     S
O187   Si12    1.554   1_655 S
C188   H455    1.186   .     S
C188   H456    1.140   .     S
C188   H457    1.113   .     S
C189   H458    1.120   .     S
C189   H459    1.143   .     S
C189   H460    1.115   .     S
C190   H461    1.166   .     S
C190   H462    1.157   .     S
C190   H463    1.104   .     S
C192   H464    1.133   .     S
C192   H465    1.133   .     S
C192   H466    1.099   .     S
C193   H467    1.068   .     S
C193   H468    1.098   .     S
C193   H469    1.104   .     S
C193   Si48    1.852   1_556 S
O194   Si41    1.646   1_565 S
O195   Si34    1.653   1_556 S
O196   Si15    1.581   1_655 S
C197   H470    1.145   .     S
C197   H471    1.069   .     S
C197   H472    1.074   .     S
C198   H473    1.110   .     S
C198   H474    1.123   .     S
C198   H475    1.088   .     S
O199   Si41    1.555   1_565 S
