data_333-11-11-14-15-30-4
_audit_creation_date              2025-03-07
_audit_creation_method            'Materials Studio'
_symmetry_space_group_name_H-M    'P1'
_symmetry_Int_Tables_number       1
_symmetry_cell_setting            triclinic
loop_
_symmetry_equiv_pos_as_xyz
  x,y,z
_cell_length_a                    15.9757
_cell_length_b                    16.9742
_cell_length_c                    19.7865
_cell_angle_alpha                 94.0426
_cell_angle_beta                  83.6158
_cell_angle_gamma                 115.7039
loop_
_atom_site_label
_atom_site_type_symbol
_atom_site_fract_x
_atom_site_fract_y
_atom_site_fract_z
_atom_site_U_iso_or_equiv
_atom_site_adp_type
_atom_site_occupancy
Si1    Si    0.09163   0.24915   0.34724   0.00000  Uiso   1.00
Si2    Si    0.23017   0.17779   0.15923   0.00000  Uiso   1.00
Si3    Si   -0.10093   0.01419   0.53363   0.00000  Uiso   1.00
Si4    Si   -0.21385   0.09737   0.85316   0.00000  Uiso   1.00
Si5    Si    0.05407   0.13095   0.61634   0.00000  Uiso   1.00
Si6    Si    0.21064   0.34419   0.22115   0.00000  Uiso   1.00
Si7    Si   -0.01848   0.55915   0.13330   0.00000  Uiso   1.00
Si8    Si    0.06401   0.60747   0.53031   0.00000  Uiso   1.00
Si9    Si    0.24849   0.58183   0.33965   0.00000  Uiso   1.00
Si10   Si   -0.03597   0.16279   0.75110   0.00000  Uiso   1.00
Si11   Si    0.09602   0.67649   0.01569   0.00000  Uiso   1.00
Si12   Si   -0.02204   0.80523   0.22397   0.00000  Uiso   1.00
Si13   Si    0.18917   0.71684   0.40780   0.00000  Uiso   1.00
Si14   Si    0.15004   0.79509   0.28489   0.00000  Uiso   1.00
Si15   Si    0.43922   0.31587   0.55322   0.00000  Uiso   1.00
Si16   Si    0.53148   0.24074   0.35655   0.00000  Uiso   1.00
Si17   Si    0.43284   0.11602   0.74461   0.00000  Uiso   1.00
Si18   Si    0.37070   0.12098   1.08501   0.00000  Uiso   1.00
Si19   Si    0.53886   0.28028   0.66396   0.00000  Uiso   1.00
Si20   Si    0.55733   0.40633   0.14174   0.00000  Uiso   1.00
Si21   Si    0.37516   0.53332   0.23498   0.00000  Uiso   1.00
Si22   Si    0.53755   0.47987   0.01946   0.00000  Uiso   1.00
Si23   Si    0.52994   0.41001   0.42025   0.00000  Uiso   1.00
Si24   Si    0.43307   0.64106   0.55944   0.00000  Uiso   1.00
Si25   Si    0.52441   0.55221   0.33546   0.00000  Uiso   1.00
Si26   Si    0.51879   0.38734   0.79051   0.00000  Uiso   1.00
Si27   Si    0.34265   0.43826   0.97710   0.00000  Uiso   1.00
Si28   Si    0.52703   0.63249   0.11146   0.00000  Uiso   1.00
Si29   Si    0.31771   0.77909   0.20749   0.00000  Uiso   1.00
Si30   Si    0.53314   0.75836   0.00103   0.00000  Uiso   1.00
Si31   Si    0.50386   0.71289   0.42103   0.00000  Uiso   1.00
Si32   Si    0.25156   0.88778   0.49758   0.00000  Uiso   1.00
Si33   Si    0.46594   0.78778   0.29995   0.00000  Uiso   1.00
Si34   Si    0.26780   0.47059   0.84951   0.00000  Uiso   1.00
Si35   Si    0.24373   1.02048   0.82679   0.00000  Uiso   1.00
Si36   Si    0.80841   0.15263   0.18861   0.00000  Uiso   1.00
Si37   Si    0.82513  -0.03984   0.39714   0.00000  Uiso   1.00
Si38   Si    0.69731   0.21926   0.63191   0.00000  Uiso   1.00
Si39   Si    0.89066   0.12101   0.30877   0.00000  Uiso   1.00
Si40   Si    0.84039  -0.13783   0.63630   0.00000  Uiso   1.00
Si41   Si    0.68333   0.56770   0.22383   0.00000  Uiso   1.00
Si42   Si    0.72243   0.50828   0.47028   0.00000  Uiso   1.00
Si43   Si    0.84541   0.54089   0.26332   0.00000  Uiso   1.00
Si44   Si    0.65371   0.43280   0.90332   0.00000  Uiso   1.00
Si45   Si    0.82998   0.70374   0.12896   0.00000  Uiso   1.00
Si46   Si    0.63677   0.77402   0.21605   0.00000  Uiso   1.00
Si47   Si    0.88845   0.84854   0.02842   0.00000  Uiso   1.00
Si48   Si    0.84308   0.66623   0.38177   0.00000  Uiso   1.00
Si49   Si    0.62973   0.89402   0.47309   0.00000  Uiso   1.00
Si50   Si    0.79235   0.79055   0.31136   0.00000  Uiso   1.00
Si51   Si    0.83646   0.51490   0.81359   0.00000  Uiso   1.00
C52    C     0.04256   0.30480   0.41590   0.00000  Uiso   1.00
C53    C     1.14085   0.18785   0.39043   0.00000  Uiso   1.00
C54    C     0.21685   0.12216   0.23760   0.00000  Uiso   1.00
C55    C    -0.15775   0.08796   0.55489   0.00000  Uiso   1.00
C56    C    -0.23421   0.19359   0.89168   0.00000  Uiso   1.00
C57    C     0.12544   0.12335   1.10796   0.00000  Uiso   1.00
C58    C     0.67461  -0.00159   0.83427   0.00000  Uiso   1.00
C59    C     0.82680   0.06020   0.92339   0.00000  Uiso   1.00
O60    O     0.00134   0.06560   0.55432   0.00000  Uiso   1.00
C61    C     0.15049   0.11090   0.64740   0.00000  Uiso   1.00
O62    O     0.16737   0.31501   0.30012   0.00000  Uiso   1.00
O63    O     0.24531   0.27400   0.18386   0.00000  Uiso   1.00
C64    C     0.11702   0.34045   0.17173   0.00000  Uiso   1.00
C65    C     0.90075   0.46701   0.08290   0.00000  Uiso   1.00
C66    C     0.16519   0.63812   0.58428   0.00000  Uiso   1.00
C67    C     0.98514   0.66145   0.56905   0.00000  Uiso   1.00
C68    C     1.01874   0.48858   0.51920   0.00000  Uiso   1.00
C69    C     0.07422   0.54132   0.17083   0.00000  Uiso   1.00
C70    C     0.12936   0.51983   0.31871   0.00000  Uiso   1.00
C71    C     0.26244   0.51503   0.40748   0.00000  Uiso   1.00
O72    O    -0.13826   0.11564   0.78735   0.00000  Uiso   1.00
O73    O    -0.02128   0.11657   0.68066   0.00000  Uiso   1.00
C74    C    -0.00976   0.28081   0.74257   0.00000  Uiso   1.00
O75    O     0.02183   0.63846   0.08276   0.00000  Uiso   1.00
C76    C     0.15176   0.60115  -0.01690   0.00000  Uiso   1.00
C77    C     0.04123   0.68103  -0.06323   0.00000  Uiso   1.00
C78    C     0.05666   0.91135   0.18800   0.00000  Uiso   1.00
O79    O     0.10784   0.64892   0.45645   0.00000  Uiso   1.00
O80    O     0.24947   0.67110   0.36696   0.00000  Uiso   1.00
O81    O     0.04629   0.77484   0.26188   0.00000  Uiso   1.00
O82    O     0.13850   0.74013   0.35110   0.00000  Uiso   1.00
C83    C     0.22267   0.91597   0.30756   0.00000  Uiso   1.00
C84    C     0.36619   0.20847   0.51096   0.00000  Uiso   1.00
C85    C     0.36473   0.35415   0.61019   0.00000  Uiso   1.00
C86    C     0.09851   0.24817   0.59294   0.00000  Uiso   1.00
C87    C     0.42779   0.14476   0.32958   0.00000  Uiso   1.00
C88    C     0.58838   0.21264   0.42568   0.00000  Uiso   1.00
C89    C     0.51519   0.15943   0.81670   0.00000  Uiso   1.00
C90    C     0.43670   1.01888   0.69771   0.00000  Uiso   1.00
C91    C     0.45404   0.10370   1.13221   0.00000  Uiso   1.00
C92    C     0.44095   0.17774   1.00776   0.00000  Uiso   1.00
O93    O     0.32587   0.18066   1.12083   0.00000  Uiso   1.00
O94    O     0.51788   0.30924   0.59320   0.00000  Uiso   1.00
O95    O     0.45914   0.19219   0.69212   0.00000  Uiso   1.00
C96    C     0.45989   0.34420   0.20692   0.00000  Uiso   1.00
C97    C     0.63834   0.35406   0.11919   0.00000  Uiso   1.00
O98    O     0.29836   0.43578   0.21300   0.00000  Uiso   1.00
O99    O     0.31932   0.58629   0.27578   0.00000  Uiso   1.00
O100   O     0.51991   0.41121   0.07514   0.00000  Uiso   1.00
O101   O     0.48519   0.38798   0.49576   0.00000  Uiso   1.00
O102   O     0.50290   0.31818   0.37533   0.00000  Uiso   1.00
C103   C     0.33419   0.53111   0.56686   0.00000  Uiso   1.00
C104   C     0.54146   0.63211   0.56812   0.00000  Uiso   1.00
C105   C     0.40690   0.71003   0.62765   0.00000  Uiso   1.00
O106   O     0.44417   0.52636   0.28555   0.00000  Uiso   1.00
O107   O     0.50257   0.47137   0.38248   0.00000  Uiso   1.00
C108   C     0.28456   0.00843   1.05819   0.00000  Uiso   1.00
C109   C     0.39808   0.31111   0.81355   0.00000  Uiso   1.00
O110   O     0.55501   0.35607   0.71942   0.00000  Uiso   1.00
C111   C     0.52965   0.50270   0.77729   0.00000  Uiso   1.00
C112   C     0.05764   0.17020   0.80539   0.00000  Uiso   1.00
C113   C     0.27463   0.31615   0.98392   0.00000  Uiso   1.00
O114   O     0.44627   0.45524   0.98207   0.00000  Uiso   1.00
C115   C     0.29493   0.49588   1.04273   0.00000  Uiso   1.00
O116   O     0.43502   0.57750   0.16387   0.00000  Uiso   1.00
O117   O     0.56348   0.56980   0.06266   0.00000  Uiso   1.00
C118   C     0.17750   0.78742   0.04535   0.00000  Uiso   1.00
C119   C     0.29625   0.68017   0.14654   0.00000  Uiso   1.00
C120   C     0.39754   0.88212   0.16119   0.00000  Uiso   1.00
O121   O     0.21436   0.77074   0.23040   0.00000  Uiso   1.00
O122   O     0.50389   0.69122   0.06465   0.00000  Uiso   1.00
C123   C     0.62104   0.86866   0.02329   0.00000  Uiso   1.00
C124   C     0.56666   0.71184   0.92031   0.00000  Uiso   1.00
O125   O     0.43710   0.67738   0.48948   0.00000  Uiso   1.00
O126   O     0.53197   0.63615   0.38435   0.00000  Uiso   1.00
O127   O     0.25322   0.80773   0.44628   0.00000  Uiso   1.00
C128   C     0.26612   0.87160   0.58517   0.00000  Uiso   1.00
C129   C     0.35380   0.99164   0.47094   0.00000  Uiso   1.00
C130   C     0.13802   0.89680   0.50208   0.00000  Uiso   1.00
O131   O     0.37055   0.76313   0.26523   0.00000  Uiso   1.00
O132   O     0.45186   0.74241   0.37047   0.00000  Uiso   1.00
C133   C     0.51141   0.91142   0.31100   0.00000  Uiso   1.00
O134   O     0.33292   0.46730   0.90716   0.00000  Uiso   1.00
C135   C     0.28046   0.42427   0.76340   0.00000  Uiso   1.00
C136   C     0.13637   0.40811   0.87666   0.00000  Uiso   1.00
C137   C     0.30574   0.58669   0.83114   0.00000  Uiso   1.00
C138   C     0.14621   0.94776   0.77930   0.00000  Uiso   1.00
C139   C     0.30163   0.96752   0.87618   0.00000  Uiso   1.00
C140   C     0.43013   0.77052   0.98503   0.00000  Uiso   1.00
O141   O     0.32727   1.08675   0.77230   0.00000  Uiso   1.00
C142   C     0.20433   1.09205   0.88908   0.00000  Uiso   1.00
C143   C     0.68305   0.10874   0.22434   0.00000  Uiso   1.00
C144   C     0.80267   0.10447   0.10304   0.00000  Uiso   1.00
C145   C     0.86588   0.27061   0.18110   0.00000  Uiso   1.00
C146   C     0.61713   0.27939   0.28239   0.00000  Uiso   1.00
O147   O     0.89415  -0.00753   0.45614   0.00000  Uiso   1.00
C148   C     0.63205   0.11953   0.57772   0.00000  Uiso   1.00
C149   C     0.80652   0.28676   0.58434   0.00000  Uiso   1.00
O150   O     0.63908   0.27359   0.64996   0.00000  Uiso   1.00
O151   O     1.00390   0.18677   0.30942   0.00000  Uiso   1.00
O152   O     0.86123   0.11896   0.23385   0.00000  Uiso   1.00
O153   O     0.86587   0.02460   0.33385   0.00000  Uiso   1.00
C154   C     0.82509   0.17407   0.36504   0.00000  Uiso   1.00
O155   O     0.85146  -0.07197   0.57468   0.00000  Uiso   1.00
C156   C     0.73305   0.19532   0.71293   0.00000  Uiso   1.00
C157   C     0.76357  -0.11804   0.70814   0.00000  Uiso   1.00
C158   C     0.79092  -0.25543   0.60245   0.00000  Uiso   1.00
C159   C     0.95893  -0.10630   0.66816   0.00000  Uiso   1.00
O160   O     0.61501   0.50124   0.17214   0.00000  Uiso   1.00
O161   O     0.62400   0.58241   0.29369   0.00000  Uiso   1.00
O162   O     0.63860   0.45404   0.42539   0.00000  Uiso   1.00
C163   C     0.80270   0.45400   0.46657   0.00000  Uiso   1.00
C164   C     0.67780   0.50872   0.55988   0.00000  Uiso   1.00
O165   O     0.91983   0.57774   0.19789   0.00000  Uiso   1.00
O166   O     0.74779   0.52534   0.24134   0.00000  Uiso   1.00
C167   C     0.83860   0.43722   0.28764   0.00000  Uiso   1.00
O168   O     0.58329   0.39115   0.84546   0.00000  Uiso   1.00
C169   C     0.67511   0.34184   0.93483   0.00000  Uiso   1.00
O170   O     0.61757   0.47587   0.96511   0.00000  Uiso   1.00
O171   O     0.74958   0.65963   0.18617   0.00000  Uiso   1.00
C172   C     0.81758   0.61957   0.06309   0.00000  Uiso   1.00
O173   O     0.92483   0.73637   0.16899   0.00000  Uiso   1.00
O174   O     0.60945   0.69642   0.15597   0.00000  Uiso   1.00
C175   C     0.69325   0.88643   0.18119   0.00000  Uiso   1.00
O176   O     0.54172   0.76363   0.25098   0.00000  Uiso   1.00
C177   C     1.01054   0.86999   1.01088   0.00000  Uiso   1.00
O178   O     0.83349   0.78741   0.09175   0.00000  Uiso   1.00
C179   C     0.89194   0.95839   0.04940   0.00000  Uiso   1.00
C180   C     0.83022   0.80542   0.95237   0.00000  Uiso   1.00
O181   O     0.77849   0.60631   0.44421   0.00000  Uiso   1.00
O182   O     0.87665   0.60876   0.32532   0.00000  Uiso   1.00
C183   C     0.94543   0.75081   0.42486   0.00000  Uiso   1.00
O184   O     0.59094   0.79982   0.43949   0.00000  Uiso   1.00
C185   C     0.64755   0.88261   0.56278   0.00000  Uiso   1.00
O186   O     0.72514   0.95491   0.42863   0.00000  Uiso   1.00
C187   C     0.53670   0.93623   0.47918   0.00000  Uiso   1.00
O188   O     0.89405   0.82078   0.26846   0.00000  Uiso   1.00
O189   O     0.70095   0.76422   0.26886   0.00000  Uiso   1.00
O190   O     0.78412   0.70694   0.34733   0.00000  Uiso   1.00
O191   O     0.80629   0.86529   0.37032   0.00000  Uiso   1.00
O192   O     0.75030   0.50396   0.86824   0.00000  Uiso   1.00
C193   C     0.79935   0.45569   0.73023   0.00000  Uiso   1.00
C194   C     0.91293   0.63146   0.79375   0.00000  Uiso   1.00
C195   C     0.90744   0.47503   0.85620   0.00000  Uiso   1.00
H196   H     0.01143   0.33803   0.39051   0.00000  Uiso   1.00
H197   H     0.10208   0.35272   0.43646   0.00000  Uiso   1.00
H198   H    -0.01059   0.26599   0.45504   0.00000  Uiso   1.00
H199   H     1.13628   0.20031   0.44682   0.00000  Uiso   1.00
H200   H     1.21592   0.21428   0.36895   0.00000  Uiso   1.00
H201   H     1.10825   0.11597   0.38605   0.00000  Uiso   1.00
H202   H     0.24131   0.06985   0.22947   0.00000  Uiso   1.00
H203   H     0.14655   0.09799   0.25817   0.00000  Uiso   1.00
H204   H     0.27153   0.17447   0.26795   0.00000  Uiso   1.00
H205   H    -0.11079   0.15177   0.54445   0.00000  Uiso   1.00
H206   H    -0.18505   0.08128   0.61082   0.00000  Uiso   1.00
H207   H    -0.21619   0.06746   0.53025   0.00000  Uiso   1.00
H208   H    -0.17014   0.25151   0.89360   0.00000  Uiso   1.00
H209   H    -0.26678   0.18405   0.94686   0.00000  Uiso   1.00
H210   H    -0.27915   0.20911   0.85777   0.00000  Uiso   1.00
H211   H     0.10599   0.05048   1.10153   0.00000  Uiso   1.00
H212   H     0.13994   0.15350   1.06064   0.00000  Uiso   1.00
H213   H     0.06705   0.13232   1.13353   0.00000  Uiso   1.00
H214   H     0.62903  -0.01470   0.88144   0.00000  Uiso   1.00
H215   H     0.68144  -0.06265   0.82288   0.00000  Uiso   1.00
H216   H     0.64720   0.00799   0.78807   0.00000  Uiso   1.00
H217   H     0.76449   0.04400   0.96307   0.00000  Uiso   1.00
H218   H     0.88870   0.12379   0.93930   0.00000  Uiso   1.00
H219   H     0.83579  -0.00087   0.90730   0.00000  Uiso   1.00
H220   H     0.12842   0.05810   0.68298   0.00000  Uiso   1.00
H221   H     0.19916   0.17090   0.67459   0.00000  Uiso   1.00
H222   H     0.19219   0.10150   0.60240   0.00000  Uiso   1.00
H223   H     0.08438   0.26701   0.15107   0.00000  Uiso   1.00
H224   H     0.14495   0.37710   0.12284   0.00000  Uiso   1.00
H225   H     0.07667   0.36810   0.19959   0.00000  Uiso   1.00
H226   H     0.87005   0.49180   0.04808   0.00000  Uiso   1.00
H227   H     0.84979   0.40839   0.11044   0.00000  Uiso   1.00
H228   H     0.93731   0.43745   0.04746   0.00000  Uiso   1.00
H229   H     0.22769   0.64668   0.54931   0.00000  Uiso   1.00
H230   H     0.15053   0.58487   0.61604   0.00000  Uiso   1.00
H231   H     0.17231   0.69314   0.62090   0.00000  Uiso   1.00
H232   H     0.95241   0.62676   0.61964   0.00000  Uiso   1.00
H233   H     0.92959   0.64966   0.53583   0.00000  Uiso   1.00
H234   H     1.02754   0.73256   0.57784   0.00000  Uiso   1.00
H235   H     1.06650   0.45566   0.51637   0.00000  Uiso   1.00
H236   H     0.98753   0.47284   0.46668   0.00000  Uiso   1.00
H237   H     0.95949   0.45789   0.56248   0.00000  Uiso   1.00
H238   H     0.11979   0.52480   0.13367   0.00000  Uiso   1.00
H239   H     0.03563   0.48463   0.20715   0.00000  Uiso   1.00
H240   H     0.12115   0.59683   0.20281   0.00000  Uiso   1.00
H241   H     0.09169   0.55755   0.30883   0.00000  Uiso   1.00
H242   H     0.09061   0.48083   0.36292   0.00000  Uiso   1.00
H243   H     0.13245   0.47995   0.27626   0.00000  Uiso   1.00
H244   H     0.20467   0.50604   0.45099   0.00000  Uiso   1.00
H245   H     0.33914   0.54541   0.41953   0.00000  Uiso   1.00
H246   H     0.24703   0.45084   0.38927   0.00000  Uiso   1.00
H247   H    -0.03373   0.29158   0.69410   0.00000  Uiso   1.00
H248   H     0.07052   0.32512   0.74092   0.00000  Uiso   1.00
H249   H    -0.04491   0.29811   0.78483   0.00000  Uiso   1.00
H250   H     0.21485   0.63107   0.00859   0.00000  Uiso   1.00
H251   H     0.15643   0.59616  -0.07216   0.00000  Uiso   1.00
H252   H     0.10947   0.53840   0.01076   0.00000  Uiso   1.00
H253   H     0.06168   0.74903  -0.07352   0.00000  Uiso   1.00
H254   H    -0.03153   0.63763  -0.06476   0.00000  Uiso   1.00
H255   H     0.07957   0.66273  -0.10426   0.00000  Uiso   1.00
H256   H     0.07122   0.95493   0.23577   0.00000  Uiso   1.00
H257   H     0.01076   0.93065   0.15802   0.00000  Uiso   1.00
H258   H     0.11168   0.89971   0.15095   0.00000  Uiso   1.00
H259   H     0.17097   0.93701   0.34016   0.00000  Uiso   1.00
H260   H     0.26069   0.95243   0.26215   0.00000  Uiso   1.00
H261   H     0.28014   0.91905   0.34006   0.00000  Uiso   1.00
H262   H     0.40611   0.19366   0.46652   0.00000  Uiso   1.00
H263   H     0.29703   0.20220   0.49743   0.00000  Uiso   1.00
H264   H     0.34885   0.15879   0.55116   0.00000  Uiso   1.00
H265   H     0.33469   0.31371   0.65595   0.00000  Uiso   1.00
H266   H     0.31331   0.35945   0.58207   0.00000  Uiso   1.00
H267   H     0.40775   0.42457   0.62601   0.00000  Uiso   1.00
H268   H     0.12992   0.28264   0.63915   0.00000  Uiso   1.00
H269   H     0.04017   0.26310   0.58059   0.00000  Uiso   1.00
H270   H     0.14782   0.25384   0.55138   0.00000  Uiso   1.00
H271   H     0.36683   0.13861   0.36209   0.00000  Uiso   1.00
H272   H     0.44169   0.08409   0.33572   0.00000  Uiso   1.00
H273   H     0.42047   0.14931   0.27725   0.00000  Uiso   1.00
H274   H     0.65538   0.21175   0.40159   0.00000  Uiso   1.00
H275   H     0.53706   0.14907   0.44358   0.00000  Uiso   1.00
H276   H     0.60480   0.26485   0.46705   0.00000  Uiso   1.00
H277   H     0.55422   0.12060   0.82512   0.00000  Uiso   1.00
H278   H     0.47587   0.15865   0.86296   0.00000  Uiso   1.00
H279   H     0.57200   0.22213   0.80313   0.00000  Uiso   1.00
H280   H     0.40232   1.01174   0.65144   0.00000  Uiso   1.00
H281   H     0.39411   0.95739   0.72303   0.00000  Uiso   1.00
H282   H     0.50922   1.02638   0.68889   0.00000  Uiso   1.00
H283   H     0.49666   0.07094   1.09794   0.00000  Uiso   1.00
H284   H     0.41649   0.06941   1.18050   0.00000  Uiso   1.00
H285   H     0.50227   0.16872   1.14950   0.00000  Uiso   1.00
H286   H     0.46796   0.24883   1.02041   0.00000  Uiso   1.00
H287   H     0.39500   0.15606   0.96696   0.00000  Uiso   1.00
H288   H     0.49501   0.15130   0.99267   0.00000  Uiso   1.00
H289   H     0.39991   0.36061   0.20566   0.00000  Uiso   1.00
H290   H     0.48803   0.36048   0.25775   0.00000  Uiso   1.00
H291   H     0.43301   0.27153   0.20243   0.00000  Uiso   1.00
H292   H     0.68657   0.39317   0.07971   0.00000  Uiso   1.00
H293   H     0.60910   0.28483   0.09656   0.00000  Uiso   1.00
H294   H     0.67649   0.36488   0.16569   0.00000  Uiso   1.00
H295   H     0.32645   0.50344   0.61808   0.00000  Uiso   1.00
H296   H     0.34692   0.48253   0.53148   0.00000  Uiso   1.00
H297   H     0.26998   0.53331   0.55922   0.00000  Uiso   1.00
H298   H     0.53185   0.59295   0.61235   0.00000  Uiso   1.00
H299   H     0.60080   0.69505   0.58157   0.00000  Uiso   1.00
H300   H     0.55536   0.59485   0.52091   0.00000  Uiso   1.00
H301   H     0.46601   0.73735   0.66054   0.00000  Uiso   1.00
H302   H     0.33514   0.67484   0.65185   0.00000  Uiso   1.00
H303   H     0.40511   0.76586   0.60759   0.00000  Uiso   1.00
H304   H     0.32525  -0.02752   1.04146   0.00000  Uiso   1.00
H305   H     0.23028  -0.00226   1.02300   0.00000  Uiso   1.00
H306   H     0.24842  -0.01750   1.10809   0.00000  Uiso   1.00
H307   H     0.35533   0.30438   0.76810   0.00000  Uiso   1.00
H308   H     0.36720   0.34490   0.85080   0.00000  Uiso   1.00
H309   H     0.37830   0.24793   0.83756   0.00000  Uiso   1.00
H310   H     0.60521   0.54650   0.77166   0.00000  Uiso   1.00
H311   H     0.50095   0.52030   0.82344   0.00000  Uiso   1.00
H312   H     0.49143   0.50445   0.73269   0.00000  Uiso   1.00
H313   H     0.12482   0.22045   0.78673   0.00000  Uiso   1.00
H314   H     0.05842   0.10552   0.79568   0.00000  Uiso   1.00
H315   H     0.03923   0.18804   0.85841   0.00000  Uiso   1.00
H316   H     0.31794   0.28204   0.96332   0.00000  Uiso   1.00
H317   H     0.20709   0.28640   0.95906   0.00000  Uiso   1.00
H318   H     0.24904   0.29526   1.03682   0.00000  Uiso   1.00
H319   H     0.29946   0.47568   1.09470   0.00000  Uiso   1.00
H320   H     0.21626   0.46831   1.03289   0.00000  Uiso   1.00
H321   H     0.32656   0.56856   1.03125   0.00000  Uiso   1.00
H322   H     0.15891   0.84193   0.03689   0.00000  Uiso   1.00
H323   H     0.24728   0.80113   0.02160   0.00000  Uiso   1.00
H324   H     0.19049   0.79053   0.09927   0.00000  Uiso   1.00
H325   H     0.26459   0.61339   0.17027   0.00000  Uiso   1.00
H326   H     0.35909   0.68568   0.11325   0.00000  Uiso   1.00
H327   H     0.25085   0.68636   0.10893   0.00000  Uiso   1.00
H328   H     0.35837   0.89284   0.12159   0.00000  Uiso   1.00
H329   H     0.46079   0.87663   0.14483   0.00000  Uiso   1.00
H330   H     0.42294   0.93659   0.19940   0.00000  Uiso   1.00
H331   H     0.65782   0.89591  -0.02661   0.00000  Uiso   1.00
H332   H     0.67089   0.85971   0.05316   0.00000  Uiso   1.00
H333   H     0.59126   0.90741   0.05461   0.00000  Uiso   1.00
H334   H     0.58305   0.75439   0.87573   0.00000  Uiso   1.00
H335   H     0.51321   0.65171   0.90703   0.00000  Uiso   1.00
H336   H     0.63110   0.70419   0.92789   0.00000  Uiso   1.00
H337   H     0.27299   0.93361   0.61129   0.00000  Uiso   1.00
H338   H     0.32547   0.85679   0.58473   0.00000  Uiso   1.00
H339   H     0.19861   0.82195   0.60885   0.00000  Uiso   1.00
H340   H     0.40440   0.98915   0.42861   0.00000  Uiso   1.00
H341   H     0.39711   1.03329   0.51252   0.00000  Uiso   1.00
H342   H     0.31670   1.02872   0.45445   0.00000  Uiso   1.00
H343   H     0.14315   0.94074   0.46210   0.00000  Uiso   1.00
H344   H     0.12696   0.93294   0.54793   0.00000  Uiso   1.00
H345   H     0.07470   0.83688   0.50450   0.00000  Uiso   1.00
H346   H     0.45344   0.93078   0.32917   0.00000  Uiso   1.00
H347   H     0.53897   0.94063   0.26273   0.00000  Uiso   1.00
H348   H     0.57209   0.93249   0.34558   0.00000  Uiso   1.00
H349   H     0.23648   0.35410   0.75419   0.00000  Uiso   1.00
H350   H     0.34806   0.43258   0.74632   0.00000  Uiso   1.00
H351   H     0.26514   0.45907   0.72310   0.00000  Uiso   1.00
H352   H     0.11454   0.34492   0.85532   0.00000  Uiso   1.00
H353   H     0.09503   0.43472   0.85762   0.00000  Uiso   1.00
H354   H     0.12416   0.40728   0.93081   0.00000  Uiso   1.00
H355   H     0.30326   0.62151   0.88098   0.00000  Uiso   1.00
H356   H     0.25839   0.59711   0.79757   0.00000  Uiso   1.00
H357   H     0.37860   0.61599   0.81172   0.00000  Uiso   1.00
H358   H     0.16317   0.93634   0.72349   0.00000  Uiso   1.00
H359   H     0.09160   0.96860   0.78670   0.00000  Uiso   1.00
H360   H     0.11606   0.88391   0.80267   0.00000  Uiso   1.00
H361   H     0.23611   0.92432   0.91429   0.00000  Uiso   1.00
H362   H     0.36397   1.01388   0.90486   0.00000  Uiso   1.00
H363   H     0.31911   0.92217   0.84106   0.00000  Uiso   1.00
H364   H     0.44350   0.82118   0.95032   0.00000  Uiso   1.00
H365   H     0.40518   0.79688   1.02972   0.00000  Uiso   1.00
H366   H     0.37207   0.70986   0.96688   0.00000  Uiso   1.00
H367   H     0.12928   1.06468   0.90907   0.00000  Uiso   1.00
H368   H     0.22216   1.15160   0.85763   0.00000  Uiso   1.00
H369   H     0.24366   1.11204   0.93456   0.00000  Uiso   1.00
H370   H     0.63703   0.04204   0.20422   0.00000  Uiso   1.00
H371   H     0.65690   0.15145   0.20610   0.00000  Uiso   1.00
H372   H     0.68466   0.11216   0.28057   0.00000  Uiso   1.00
H373   H     0.77956   0.14318   0.07734   0.00000  Uiso   1.00
H374   H     0.75727   0.03257   0.10111   0.00000  Uiso   1.00
H375   H     0.86824   0.11935   0.07547   0.00000  Uiso   1.00
H376   H     0.92970   0.29600   0.14709   0.00000  Uiso   1.00
H377   H     0.88265   0.29514   0.23463   0.00000  Uiso   1.00
H378   H     0.81934   0.28733   0.15651   0.00000  Uiso   1.00
H379   H     0.63883   0.34877   0.27583   0.00000  Uiso   1.00
H380   H     0.58148   0.24174   0.23960   0.00000  Uiso   1.00
H381   H     0.67627   0.26945   0.28856   0.00000  Uiso   1.00
H382   H     0.56615   0.11933   0.56585   0.00000  Uiso   1.00
H383   H     0.61708   0.05628   0.59907   0.00000  Uiso   1.00
H384   H     0.67480   0.12322   0.53082   0.00000  Uiso   1.00
H385   H     0.80206   0.26580   0.52990   0.00000  Uiso   1.00
H386   H     0.85674   0.26876   0.60578   0.00000  Uiso   1.00
H387   H     0.81934   0.35725   0.59332   0.00000  Uiso   1.00
H388   H     0.84090   0.18806   0.41654   0.00000  Uiso   1.00
H389   H     0.74589   0.13086   0.37113   0.00000  Uiso   1.00
H390   H     0.83435   0.23748   0.34552   0.00000  Uiso   1.00
H391   H     0.77558   0.16166   0.70206   0.00000  Uiso   1.00
H392   H     0.66683   0.15350   0.74041   0.00000  Uiso   1.00
H393   H     0.77665   0.25597   0.74159   0.00000  Uiso   1.00
H394   H     0.75392  -0.15498   0.75524   0.00000  Uiso   1.00
H395   H     0.69371  -0.14362   0.69108   0.00000  Uiso   1.00
H396   H     0.79247  -0.04608   0.71907   0.00000  Uiso   1.00
H397   H     0.73171  -0.29852   0.63958   0.00000  Uiso   1.00
H398   H     0.84921  -0.27723   0.59330   0.00000  Uiso   1.00
H399   H     0.76323  -0.26133   0.55376   0.00000  Uiso   1.00
H400   H     1.00843  -0.08185   0.62089   0.00000  Uiso   1.00
H401   H     0.96147  -0.16200   0.69436   0.00000  Uiso   1.00
H402   H     0.97627  -0.04983   0.70341   0.00000  Uiso   1.00
H403   H     0.77645   0.38378   0.44359   0.00000  Uiso   1.00
H404   H     0.81897   0.45472   0.52062   0.00000  Uiso   1.00
H405   H     0.87063   0.49741   0.43624   0.00000  Uiso   1.00
H406   H     0.67335   0.45757   0.59133   0.00000  Uiso   1.00
H407   H     0.60572   0.50669   0.56787   0.00000  Uiso   1.00
H408   H     0.72172   0.56999   0.58451   0.00000  Uiso   1.00
H409   H     0.82178   0.39337   0.24035   0.00000  Uiso   1.00
H410   H     0.77708   0.40856   0.32378   0.00000  Uiso   1.00
H411   H     0.90511   0.44703   0.30825   0.00000  Uiso   1.00
H412   H     0.65733   0.28899   0.89422   0.00000  Uiso   1.00
H413   H     0.62861   0.31013   0.98075   0.00000  Uiso   1.00
H414   H     0.74483   0.36999   0.95202   0.00000  Uiso   1.00
H415   H     0.88693   0.63230   0.04208   0.00000  Uiso   1.00
H416   H     0.77742   0.62296   0.02265   0.00000  Uiso   1.00
H417   H     0.77435   0.55154   0.09014   0.00000  Uiso   1.00
H418   H     0.72210   0.92839   0.22230   0.00000  Uiso   1.00
H419   H     0.64359   0.90314   0.15801   0.00000  Uiso   1.00
H420   H     0.75488   0.88982   0.15031   0.00000  Uiso   1.00
H421   H     1.05247   0.91928   1.05178   0.00000  Uiso   1.00
H422   H     1.03875   0.89042   0.95592   0.00000  Uiso   1.00
H423   H     1.01089   0.80840   1.01755   0.00000  Uiso   1.00
H424   H     0.92611   0.99979   0.00379   0.00000  Uiso   1.00
H425   H     0.92054   0.98874   0.09646   0.00000  Uiso   1.00
H426   H     0.81967   0.95056   0.04741   0.00000  Uiso   1.00
H427   H     0.76941   0.81644   0.95775   0.00000  Uiso   1.00
H428   H     0.81925   0.73956   0.94263   0.00000  Uiso   1.00
H429   H     0.87414   0.84757   0.90824   0.00000  Uiso   1.00
H430   H     0.99240   0.81068   0.39753   0.00000  Uiso   1.00
H431   H     0.99404   0.72019   0.42538   0.00000  Uiso   1.00
H432   H     0.92405   0.77002   0.47612   0.00000  Uiso   1.00
H433   H     0.66764   0.82794   0.56621   0.00000  Uiso   1.00
H434   H     0.57610   0.86584   0.59094   0.00000  Uiso   1.00
H435   H     0.70176   0.94571   0.58193   0.00000  Uiso   1.00
H436   H     0.47088   0.89580   0.45614   0.00000  Uiso   1.00
H437   H     0.57167   0.99886   0.45354   0.00000  Uiso   1.00
H438   H     0.50952   0.94592   0.53404   0.00000  Uiso   1.00
H439   H     0.73098   0.45634   0.72402   0.00000  Uiso   1.00
H440   H     0.78468   0.38545   0.73322   0.00000  Uiso   1.00
H441   H     0.84974   0.48399   0.68940   0.00000  Uiso   1.00
H442   H     0.90654   0.67663   0.83459   0.00000  Uiso   1.00
H443   H     0.88219   0.64673   0.75067   0.00000  Uiso   1.00
H444   H     0.98494   0.63836   0.77867   0.00000  Uiso   1.00
H445   H     0.98436   0.50368   0.83414   0.00000  Uiso   1.00
H446   H     0.87469   0.40120   0.85504   0.00000  Uiso   1.00
H447   H     0.89387   0.48678   0.90925   0.00000  Uiso   1.00
loop_
_geom_bond_atom_site_label_1
_geom_bond_atom_site_label_2
_geom_bond_distance
_geom_bond_site_symmetry_2
_ccdc_geom_bond_type
Si1    C52     1.891   .     S
Si1    O62     1.518   .     S
Si1    C53     1.848   1_455 S
Si1    O151    1.575   1_455 S
Si2    C54     1.817   .     S
Si2    O63     1.592   .     S
Si2    C57     1.894   1_554 S
Si2    O93     1.612   1_554 S
Si3    C55     1.843   .     S
Si3    O60     1.568   .     S
Si3    O147    1.554   1_455 S
Si3    O155    1.563   1_455 S
Si4    C56     1.893   .     S
Si4    O72     1.622   .     S
Si4    C58     1.897   1_455 S
Si4    C59     1.852   1_455 S
Si5    O60     1.635   .     S
Si5    C61     1.887   .     S
Si5    O73     1.605   .     S
Si5    C86     1.873   .     S
Si6    O62     1.654   .     S
Si6    O63     1.621   .     S
Si6    C64     1.852   .     S
Si6    O98     1.582   .     S
Si7    C69     1.871   .     S
Si7    O75     1.588   .     S
Si7    C65     1.850   1_455 S
Si7    O165    1.624   1_455 S
Si8    C66     1.897   .     S
Si8    O79     1.616   .     S
Si8    C67     1.924   1_455 S
Si8    C68     1.830   1_455 S
Si9    C70     1.810   .     S
Si9    C71     1.907   .     S
Si9    O80     1.567   .     S
Si9    O99     1.583   .     S
Si10   O72     1.585   .     S
Si10   O73     1.596   .     S
Si10   C74     1.876   .     S
Si10   C112    1.893   .     S
Si11   O75     1.640   .     S
Si11   C76     1.894   .     S
Si11   C77     1.895   .     S
Si11   C118    1.864   .     S
Si12   C78     1.830   .     S
Si12   O81     1.657   .     S
Si12   O173    1.561   1_455 S
Si12   O188    1.629   1_455 S
Si13   O79     1.588   .     S
Si13   O80     1.603   .     S
Si13   O82     1.616   .     S
Si13   O127    1.626   .     S
Si14   O81     1.650   .     S
Si14   O82     1.609   .     S
Si14   C83     1.918   .     S
Si14   O121    1.565   .     S
Si15   C84     1.882   .     S
Si15   C85     1.838   .     S
Si15   O94     1.604   .     S
Si15   O101    1.600   .     S
Si16   C87     1.848   .     S
Si16   C88     1.916   .     S
Si16   O102    1.578   .     S
Si16   C146    1.835   .     S
Si17   C89     1.933   .     S
Si17   O95     1.596   .     S
Si17   C90     1.856   1_545 S
Si17   O141    1.580   1_545 S
Si18   C91     1.840   .     S
Si18   C92     1.847   .     S
Si18   O93     1.567   .     S
Si18   C108    1.888   .     S
Si19   O94     1.631   .     S
Si19   O95     1.574   .     S
Si19   O110    1.582   .     S
Si19   O150    1.645   .     S
Si20   C96     1.876   .     S
Si20   C97     1.864   .     S
Si20   O100    1.528   .     S
Si20   O160    1.583   .     S
Si21   O98     1.640   .     S
Si21   O99     1.640   .     S
Si21   O106    1.614   .     S
Si21   O116    1.638   .     S
Si22   O100    1.574   .     S
Si22   O117    1.606   .     S
Si22   O114    1.586   1_554 S
Si22   O170    1.598   1_554 S
Si23   O101    1.579   .     S
Si23   O102    1.647   .     S
Si23   O107    1.553   .     S
Si23   O162    1.577   .     S
Si24   C103    1.852   .     S
Si24   C104    1.830   .     S
Si24   C105    1.855   .     S
Si24   O125    1.538   .     S
Si25   O106    1.595   .     S
Si25   O107    1.601   .     S
Si25   O126    1.632   .     S
Si25   O161    1.593   .     S
Si26   C109    1.823   .     S
Si26   O110    1.605   .     S
Si26   C111    1.924   .     S
Si26   O168    1.559   .     S
Si27   C113    1.884   .     S
Si27   O114    1.566   .     S
Si27   C115    1.863   .     S
Si27   O134    1.547   .     S
Si28   O116    1.648   .     S
Si28   O117    1.634   .     S
Si28   O122    1.586   .     S
Si28   O174    1.603   .     S
Si29   C119    1.923   .     S
Si29   C120    1.886   .     S
Si29   O121    1.610   .     S
Si29   O131    1.596   .     S
Si30   O122    1.647   .     S
Si30   C123    1.847   .     S
Si30   C124    1.860   1_554 S
Si30   C140    1.809   1_554 S
Si31   O125    1.604   .     S
Si31   O126    1.651   .     S
Si31   O132    1.600   .     S
Si31   O184    1.582   .     S
Si32   O127    1.646   .     S
Si32   C128    1.829   .     S
Si32   C129    1.870   .     S
Si32   C130    1.877   .     S
Si33   O131    1.615   .     S
Si33   O132    1.588   .     S
Si33   C133    1.905   .     S
Si33   O176    1.639   .     S
Si34   O134    1.646   .     S
Si34   C135    1.853   .     S
Si34   C136    1.929   .     S
Si34   C137    1.844   .     S
Si35   C138    1.824   .     S
Si35   C139    1.914   .     S
Si35   O141    1.661   .     S
Si35   C142    1.916   .     S
Si36   C143    1.879   .     S
Si36   C144    1.821   .     S
Si36   C145    1.814   .     S
Si36   O152    1.581   .     S
Si37   O147    1.597   .     S
Si37   O153    1.607   .     S
Si37   O186    1.616   1_545 S
Si37   O191    1.569   1_545 S
Si38   C148    1.888   .     S
Si38   C149    1.815   .     S
Si38   O150    1.571   .     S
Si38   C156    1.886   .     S
Si39   O151    1.665   .     S
Si39   O152    1.598   .     S
Si39   O153    1.609   .     S
Si39   C154    1.888   .     S
Si40   O155    1.655   .     S
Si40   C157    1.882   .     S
Si40   C158    1.902   .     S
Si40   C159    1.900   .     S
Si41   O160    1.590   .     S
Si41   O161    1.654   .     S
Si41   O166    1.567   .     S
Si41   O171    1.633   .     S
Si42   O162    1.584   .     S
Si42   C163    1.869   .     S
Si42   C164    1.837   .     S
Si42   O181    1.601   .     S
Si43   O165    1.615   .     S
Si43   O166    1.571   .     S
Si43   C167    1.812   .     S
Si43   O182    1.587   .     S
Si44   O168    1.599   .     S
Si44   C169    1.879   .     S
Si44   O170    1.564   .     S
Si44   O192    1.608   .     S
Si45   O171    1.566   .     S
Si45   C172    1.824   .     S
Si45   O173    1.645   .     S
Si45   O178    1.622   .     S
Si46   O174    1.654   .     S
Si46   C175    1.867   .     S
Si46   O176    1.538   .     S
Si46   O189    1.607   .     S
Si47   O178    1.602   .     S
Si47   C179    1.860   .     S
Si47   C177    1.819   1_554 S
Si47   C180    1.797   1_554 S
Si48   O181    1.615   .     S
Si48   O182    1.629   .     S
Si48   C183    1.888   .     S
Si48   O190    1.613   .     S
Si49   O184    1.570   .     S
Si49   C185    1.865   .     S
Si49   O186    1.622   .     S
Si49   C187    1.900   .     S
Si50   O188    1.629   .     S
Si50   O189    1.641   .     S
Si50   O190    1.580   .     S
Si50   O191    1.620   .     S
Si51   O192    1.604   .     S
Si51   C193    1.884   .     S
Si51   C194    1.862   .     S
Si51   C195    1.848   .     S
C52    H196    1.075   .     S
C52    H197    1.049   .     S
C52    H198    1.093   .     S
C53    H199    1.121   .     S
C53    H200    1.126   .     S
C53    H201    1.101   .     S
C53    Si1     1.848   1_655 S
C54    H202    1.111   .     S
C54    H203    1.057   .     S
C54    H204    1.132   .     S
C55    H205    1.035   .     S
C55    H206    1.138   .     S
C55    H207    1.013   .     S
C56    H208    1.071   .     S
C56    H209    1.147   .     S
C56    H210    1.154   .     S
C57    H211    1.138   .     S
C57    H212    1.053   .     S
C57    H213    1.076   .     S
C57    Si2     1.894   1_556 S
C58    H214    1.090   .     S
C58    H215    1.094   .     S
C58    H216    1.107   .     S
C58    Si4     1.897   1_655 S
C59    H217    1.141   .     S
C59    H218    1.156   .     S
C59    H219    1.127   .     S
C59    Si4     1.852   1_655 S
C61    H220    1.088   .     S
C61    H221    1.123   .     S
C61    H222    1.096   .     S
C64    H223    1.185   .     S
C64    H224    1.127   .     S
C64    H225    1.043   .     S
C65    H226    1.090   .     S
C65    H227    1.107   .     S
C65    H228    1.095   .     S
C65    Si7     1.850   1_655 S
C66    H229    1.110   .     S
C66    H230    1.063   .     S
C66    H231    1.114   .     S
C67    H232    1.150   .     S
C67    H233    1.103   .     S
C67    H234    1.111   .     S
C67    Si8     1.924   1_655 S
C68    H235    1.120   .     S
C68    H236    1.166   .     S
C68    H237    1.164   .     S
C68    Si8     1.830   1_655 S
C69    H238    1.085   .     S
C69    H239    1.143   .     S
C69    H240    1.122   .     S
C70    H241    1.090   .     S
C70    H242    1.092   .     S
C70    H243    1.052   .     S
C71    H244    1.156   .     S
C71    H245    1.151   .     S
C71    H246    1.053   .     S
C74    H247    1.126   .     S
C74    H248    1.170   .     S
C74    H249    1.051   .     S
C76    H250    1.078   .     S
C76    H251    1.087   .     S
C76    H252    1.125   .     S
C77    H253    1.083   .     S
C77    H254    1.075   .     S
C77    H255    1.072   .     S
C78    H256    1.138   .     S
C78    H257    1.153   .     S
C78    H258    1.156   .     S
C83    H259    1.154   .     S
C83    H260    1.091   .     S
C83    H261    1.159   .     S
C84    H262    1.107   .     S
C84    H263    1.124   .     S
C84    H264    1.124   .     S
C85    H265    1.108   .     S
C85    H266    1.079   .     S
C85    H267    1.132   .     S
C86    H268    1.096   .     S
C86    H269    1.121   .     S
C86    H270    1.052   .     S
C87    H271    1.075   .     S
C87    H272    1.160   .     S
C87    H273    1.067   .     S
C88    H274    1.128   .     S
C88    H275    1.088   .     S
C88    H276    1.126   .     S
C89    H277    1.116   .     S
C89    H278    1.048   .     S
C89    H279    1.085   .     S
C90    H280    1.092   .     S
C90    H281    1.089   .     S
C90    H282    1.104   .     S
C90    Si17    1.856   1_565 S
C91    H283    1.186   .     S
C91    H284    1.122   .     S
C91    H285    1.094   .     S
C92    H286    1.111   .     S
C92    H287    1.087   .     S
C92    H288    1.139   .     S
O93    Si2     1.612   1_556 S
C96    H289    1.111   .     S
C96    H290    1.115   .     S
C96    H291    1.117   .     S
C97    H292    1.068   .     S
C97    H293    1.138   .     S
C97    H294    1.120   .     S
C103   H295    1.119   .     S
C103   H296    1.115   .     S
C103   H297    1.070   .     S
C104   H298    1.093   .     S
C104   H299    1.117   .     S
C104   H300    1.146   .     S
C105   H301    1.116   .     S
C105   H302    1.107   .     S
C105   H303    1.066   .     S
C108   H304    1.083   .     S
C108   H305    1.118   .     S
C108   H306    1.103   .     S
C109   H307    1.159   .     S
C109   H308    1.105   .     S
C109   H309    1.105   .     S
C111   H310    1.107   .     S
C111   H311    1.059   .     S
C111   H312    1.136   .     S
C112   H313    1.085   .     S
C112   H314    1.106   .     S
C112   H315    1.115   .     S
C113   H316    1.110   .     S
C113   H317    1.128   .     S
C113   H318    1.105   .     S
O114   Si22    1.586   1_556 S
C115   H319    1.126   .     S
C115   H320    1.170   .     S
C115   H321    1.141   .     S
C118   H322    1.115   .     S
C118   H323    1.092   .     S
C118   H324    1.103   .     S
C119   H325    1.134   .     S
C119   H326    1.109   .     S
C119   H327    1.135   .     S
C120   H328    1.125   .     S
C120   H329    1.067   .     S
C120   H330    1.111   .     S
C123   H331    1.111   .     S
C123   H332    1.108   .     S
C123   H333    1.091   .     S
C124   H334    1.115   .     S
C124   H335    1.047   .     S
C124   H336    1.119   .     S
C124   Si30    1.860   1_556 S
C128   H337    1.106   .     S
C128   H338    1.080   .     S
C128   H339    1.117   .     S
C129   H340    1.110   .     S
C129   H341    1.130   .     S
C129   H342    1.118   .     S
C130   H343    1.098   .     S
C130   H344    1.100   .     S
C130   H345    1.079   .     S
C133   H346    1.126   .     S
C133   H347    1.066   .     S
C133   H348    1.161   .     S
C135   H349    1.103   .     S
C135   H350    1.046   .     S
C135   H351    1.131   .     S
C136   H352    1.046   .     S
C136   H353    1.058   .     S
C136   H354    1.067   .     S
C137   H355    1.119   .     S
C137   H356    1.135   .     S
C137   H357    1.084   .     S
C138   H358    1.131   .     S
C138   H359    1.068   .     S
C138   H360    1.090   .     S
C139   H361    1.199   .     S
C139   H362    1.147   .     S
C139   H363    1.105   .     S
C140   H364    1.071   .     S
C140   H365    1.078   .     S
C140   H366    1.115   .     S
C140   Si30    1.809   1_556 S
O141   Si17    1.580   1_565 S
C142   H367    1.117   .     S
C142   H368    1.135   .     S
C142   H369    1.103   .     S
C143   H370    1.123   .     S
C143   H371    1.079   .     S
C143   H372    1.112   .     S
C144   H373    1.061   .     S
C144   H374    1.117   .     S
C144   H375    1.059   .     S
C145   H376    1.089   .     S
C145   H377    1.128   .     S
C145   H378    1.074   .     S
C146   H379    1.087   .     S
C146   H380    1.079   .     S
C146   H381    1.050   .     S
O147   Si3     1.554   1_655 S
C148   H382    1.102   .     S
C148   H383    1.099   .     S
C148   H384    1.078   .     S
C149   H385    1.110   .     S
C149   H386    1.106   .     S
C149   H387    1.127   .     S
O151   Si1     1.575   1_655 S
C154   H388    1.063   .     S
C154   H389    1.152   .     S
C154   H390    1.112   .     S
O155   Si3     1.563   1_655 S
C156   H391    1.059   .     S
C156   H392    1.093   .     S
C156   H393    1.118   .     S
C157   H394    1.119   .     S
C157   H395    1.091   .     S
C157   H396    1.117   .     S
C158   H397    1.136   .     S
C158   H398    1.135   .     S
C158   H399    1.085   .     S
C159   H400    1.130   .     S
C159   H401    1.128   .     S
C159   H402    1.096   .     S
C163   H403    1.156   .     S
C163   H404    1.126   .     S
C163   H405    1.142   .     S
C164   H406    1.077   .     S
C164   H407    1.131   .     S
C164   H408    1.088   .     S
O165   Si7     1.624   1_655 S
C167   H409    1.134   .     S
C167   H410    1.092   .     S
C167   H411    1.121   .     S
C169   H412    1.122   .     S
C169   H413    1.113   .     S
C169   H414    1.088   .     S
O170   Si22    1.598   1_556 S
C172   H415    1.072   .     S
C172   H416    1.099   .     S
C172   H417    1.187   .     S
O173   Si12    1.561   1_655 S
C175   H418    1.048   .     S
C175   H419    1.102   .     S
C175   H420    1.081   .     S
C177   H421    1.159   .     S
C177   H422    1.147   .     S
C177   H423    1.065   .     S
C177   Si47    1.819   1_556 S
C179   H424    1.119   .     S
C179   H425    1.079   .     S
C179   H426    1.108   .     S
C180   H427    1.059   .     S
C180   H428    1.060   .     S
C180   H429    1.133   .     S
C180   Si47    1.797   1_556 S
C183   H430    1.102   .     S
C183   H431    1.107   .     S
C183   H432    1.107   .     S
C185   H433    1.114   .     S
C185   H434    1.137   .     S
C185   H435    1.119   .     S
O186   Si37    1.616   1_565 S
C187   H436    1.105   .     S
C187   H437    1.094   .     S
C187   H438    1.151   .     S
O188   Si12    1.629   1_655 S
O191   Si37    1.569   1_565 S
C193   H439    1.117   .     S
C193   H440    1.115   .     S
C193   H441    1.052   .     S
C194   H442    1.101   .     S
C194   H443    1.127   .     S
C194   H444    1.113   .     S
C195   H445    1.153   .     S
C195   H446    1.129   .     S
C195   H447    1.071   .     S
