data_333-11-11-14-15-30-8
_audit_creation_date              2025-03-07
_audit_creation_method            'Materials Studio'
_symmetry_space_group_name_H-M    'P1'
_symmetry_Int_Tables_number       1
_symmetry_cell_setting            triclinic
loop_
_symmetry_equiv_pos_as_xyz
  x,y,z
_cell_length_a                    17.4201
_cell_length_b                    16.4794
_cell_length_c                    18.7467
_cell_angle_alpha                 95.8002
_cell_angle_beta                  85.6832
_cell_angle_gamma                 123.2913
loop_
_atom_site_label
_atom_site_type_symbol
_atom_site_fract_x
_atom_site_fract_y
_atom_site_fract_z
_atom_site_U_iso_or_equiv
_atom_site_adp_type
_atom_site_occupancy
Si1    Si   -0.06275   0.15486   0.19611   0.00000  Uiso   1.00
Si2    Si    0.14246   0.29021   0.02941   0.00000  Uiso   1.00
Si3    Si   -0.05489   0.12128   0.50681   0.00000  Uiso   1.00
Si4    Si    0.05434   0.07646   0.22431   0.00000  Uiso   1.00
Si5    Si    0.08679  -0.14982   0.77921   0.00000  Uiso   1.00
Si6    Si    0.10691   0.35826   0.17604   0.00000  Uiso   1.00
Si7    Si    0.15682   0.56431   0.15620   0.00000  Uiso   1.00
Si8    Si   -0.02880   0.46233   0.51588   0.00000  Uiso   1.00
Si9    Si    0.20587   0.50827   0.37919   0.00000  Uiso   1.00
Si10   Si    0.32658   0.44558   0.64567   0.00000  Uiso   1.00
Si11   Si    0.23240   0.51129   0.76098   0.00000  Uiso   1.00
Si12   Si   -0.10260   0.73566   0.22545   0.00000  Uiso   1.00
Si13   Si    0.16858   0.65302   0.46320   0.00000  Uiso   1.00
Si14   Si   -0.02088   0.79116   0.50497   0.00000  Uiso   1.00
Si15   Si    0.22228   0.68329   0.82400   0.00000  Uiso   1.00
Si16   Si    0.19482   0.77092   0.70042   0.00000  Uiso   1.00
Si17   Si    0.52479   0.04840   0.09748   0.00000  Uiso   1.00
Si18   Si    0.57440   0.20929  -0.00692   0.00000  Uiso   1.00
Si19   Si    0.47618  -0.03745   0.46769   0.00000  Uiso   1.00
Si20   Si    0.47029   0.05315   0.33189   0.00000  Uiso   1.00
Si21   Si    0.52695   0.01745   0.74805   0.00000  Uiso   1.00
Si22   Si    0.44641   0.13742   0.72719   0.00000  Uiso   1.00
Si23   Si    0.28983   0.45518   0.25581   0.00000  Uiso   1.00
Si24   Si    0.52791   0.51083  -0.04141   0.00000  Uiso   1.00
Si25   Si    0.39829   0.37049   0.30109   0.00000  Uiso   1.00
Si26   Si    0.44776   0.84041   0.03589   0.00000  Uiso   1.00
Si27   Si    0.32517   0.81174   0.57462   0.00000  Uiso   1.00
Si28   Si    0.55599   0.77389   0.75252   0.00000  Uiso   1.00
Si29   Si    0.27552   0.79226   0.97055   0.00000  Uiso   1.00
Si30   Si    0.49930   0.84951   0.63643   0.00000  Uiso   1.00
Si31   Si    0.83381   0.08388   0.05195   0.00000  Uiso   1.00
Si32   Si    0.64205   0.11464   0.23305   0.00000  Uiso   1.00
Si33   Si    0.79909   0.21787  -0.01355   0.00000  Uiso   1.00
Si34   Si    0.77652  -0.04494   0.41771   0.00000  Uiso   1.00
Si35   Si    0.65305   0.14607   0.51991   0.00000  Uiso   1.00
Si36   Si    0.78783   0.10823   0.31139   0.00000  Uiso   1.00
Si37   Si    1.11666   0.15434   0.77596   0.00000  Uiso   1.00
Si38   Si    0.66405   0.17656   0.85923   0.00000  Uiso   1.00
Si39   Si    0.77340   0.28448   0.14022   0.00000  Uiso   1.00
Si40   Si    0.80946   0.28527   0.41802   0.00000  Uiso   1.00
Si41   Si    0.68018   0.48955   0.56541   0.00000  Uiso   1.00
Si42   Si    0.77595   0.43454   0.35869   0.00000  Uiso   1.00
Si43   Si    0.80115   0.34778   0.76477   0.00000  Uiso   1.00
Si44   Si    0.71553   0.58752   0.88635   0.00000  Uiso   1.00
Si45   Si    0.81898   0.46114   0.62740   0.00000  Uiso   1.00
Si46   Si    0.64929   0.73611   0.24322   0.00000  Uiso   1.00
Si47   Si    0.88276   0.94894  -0.03270   0.00000  Uiso   1.00
Si48   Si    0.79822   0.62337   0.44845   0.00000  Uiso   1.00
Si49   Si    0.63667   0.83538   0.52766   0.00000  Uiso   1.00
Si50   Si    0.78346   0.76513   0.35018   0.00000  Uiso   1.00
Si51   Si    0.91419   1.02275   0.82202   0.00000  Uiso   1.00
C52    C     0.07808   0.26330  -0.05211   0.00000  Uiso   1.00
C53    C     0.26444   0.38345   1.00773   0.00000  Uiso   1.00
C54    C     0.14063   0.18863   1.05905   0.00000  Uiso   1.00
C55    C     0.04326   0.10397   0.50909   0.00000  Uiso   1.00
C56    C    -0.01679   0.22055   0.44772   0.00000  Uiso   1.00
C57    C     0.91807   0.14671   0.59650   0.00000  Uiso   1.00
O58    O    -0.00711   0.10105   0.18544   0.00000  Uiso   1.00
C59    C    -0.01951  -0.00859   0.28876   0.00000  Uiso   1.00
C60    C     0.14736   0.18591   0.28144   0.00000  Uiso   1.00
C61    C     0.12276   0.03133   0.17252   0.00000  Uiso   1.00
C62    C    -0.00547  -0.14450   0.74215   0.00000  Uiso   1.00
C63    C     0.17004  -0.03101   0.82585   0.00000  Uiso   1.00
C64    C     0.03846   0.76348   0.85015   0.00000  Uiso   1.00
O65    O     0.01636   0.27055   0.20842   0.00000  Uiso   1.00
O66    O     0.11212   0.33504   0.09260   0.00000  Uiso   1.00
O67    O     0.10182   0.45314   0.18261   0.00000  Uiso   1.00
C68    C     0.24137   0.64906   0.22083   0.00000  Uiso   1.00
C69    C     0.06509   0.59066   1.15765   0.00000  Uiso   1.00
C70    C     0.20865   0.56605   1.07025   0.00000  Uiso   1.00
C71    C     0.08301   0.41299   0.35536   0.00000  Uiso   1.00
C72    C     0.23839   0.46869   0.45153   0.00000  Uiso   1.00
C73    C     0.22716   0.34671   0.59447   0.00000  Uiso   1.00
C74    C     0.40199   0.52566   0.58115   0.00000  Uiso   1.00
C75    C     0.38810   0.39754   0.68618   0.00000  Uiso   1.00
C76    C     0.01806   0.41198   0.56744   0.00000  Uiso   1.00
C77    C     0.24191   0.47161   0.85011   0.00000  Uiso   1.00
O78    O     0.29813   0.50470   0.69960   0.00000  Uiso   1.00
C79    C     0.10958   0.43585   0.74140   0.00000  Uiso   1.00
C80    C     0.01460   0.75515   0.23363   0.00000  Uiso   1.00
C81    C    -0.09303   0.80211   0.14340   0.00000  Uiso   1.00
C82    C     0.81146   0.61112   0.20137   0.00000  Uiso   1.00
O83    O     0.06007   0.56314   0.48877   0.00000  Uiso   1.00
O84    O     0.20936   0.60643   0.40885   0.00000  Uiso   1.00
C85    C     0.16664   0.74053   0.40947   0.00000  Uiso   1.00
C86    C     0.04603   0.88260   0.44095   0.00000  Uiso   1.00
C87    C     0.91154   0.82657   0.56397   0.00000  Uiso   1.00
C88    C     0.10565   0.60018   0.85367   0.00000  Uiso   1.00
O89    O     0.25802   0.62142   0.78022   0.00000  Uiso   1.00
C90    C     0.05068   0.76890   0.55626   0.00000  Uiso   1.00
C91    C     0.11404   0.64291   0.66262   0.00000  Uiso   1.00
O92    O     0.23050   0.76135   0.77457   0.00000  Uiso   1.00
O93    O     0.13555   0.81547   0.71944   0.00000  Uiso   1.00
C94    C     0.41417   1.03062   0.13841   0.00000  Uiso   1.00
O95    O     0.57604   0.14952   0.05930   0.00000  Uiso   1.00
C96    C     0.65025   0.34625   0.00310   0.00000  Uiso   1.00
C97    C     0.45769   0.19281   0.99420   0.00000  Uiso   1.00
C98    C     0.47452   0.85641   0.41349   0.00000  Uiso   1.00
C99    C     0.38902  -0.06620   0.27841   0.00000  Uiso   1.00
O100   O     0.45809   0.01308   0.41045   0.00000  Uiso   1.00
C101   C     0.42128   0.13076   0.34322   0.00000  Uiso   1.00
C102   C     0.34857   0.07764   0.66593   0.00000  Uiso   1.00
O103   O     0.50372   0.08920   0.71920   0.00000  Uiso   1.00
C104   C     0.40431   0.13419   0.81996   0.00000  Uiso   1.00
O105   O     0.19347   0.37755   0.21790   0.00000  Uiso   1.00
C106   C     0.37865   0.52243   0.18696   0.00000  Uiso   1.00
O107   O     0.26988   0.52120   0.31099   0.00000  Uiso   1.00
C108   C     0.51590   0.44181   0.03327   0.00000  Uiso   1.00
C109   C     0.48636   0.59167  -0.01794   0.00000  Uiso   1.00
C110   C     0.47031   0.42904   0.87817   0.00000  Uiso   1.00
O111   O     0.31969   0.39452   0.29589   0.00000  Uiso   1.00
C112   C     0.34729   0.28071   0.37134   0.00000  Uiso   1.00
C113   C     0.50961   0.47704   0.33456   0.00000  Uiso   1.00
C114   C     0.40783   0.31397   0.21186   0.00000  Uiso   1.00
C115   C     0.46590   0.79337   0.11122   0.00000  Uiso   1.00
O116   O     0.50183   0.95843   0.04197   0.00000  Uiso   1.00
O117   O     0.24698   0.71271   0.52951   0.00000  Uiso   1.00
O118   O     0.39120   0.90777   0.52663   0.00000  Uiso   1.00
O119   O     0.27241   0.82638   0.64411   0.00000  Uiso   1.00
C120   C     0.46537   0.68612   0.81240   0.00000  Uiso   1.00
C121   C     0.61151   0.70691   0.71420   0.00000  Uiso   1.00
O122   O     0.27510   0.73470   0.89692   0.00000  Uiso   1.00
O123   O     0.34115   0.79487   1.02454   0.00000  Uiso   1.00
C124   C     0.31399   0.92067   0.95841   0.00000  Uiso   1.00
C125   C     0.43405   0.93489   0.80800   0.00000  Uiso   1.00
C126   C     0.16280   0.74651   1.01955   0.00000  Uiso   1.00
O127   O     0.39829   0.79554   0.60624   0.00000  Uiso   1.00
O128   O     0.50226   0.78749   0.69545   0.00000  Uiso   1.00
O129   O     0.54081   0.95498   0.68059   0.00000  Uiso   1.00
O130   O     0.88076   0.13980   0.12661   0.00000  Uiso   1.00
O131   O     0.58490   0.05106   0.16395   0.00000  Uiso   1.00
O132   O     0.57166   0.11007   0.29719   0.00000  Uiso   1.00
C133   C     0.90346   0.34590   0.97130   0.00000  Uiso   1.00
O134   O     0.83644   0.15459  -0.00375   0.00000  Uiso   1.00
O135   O     0.85751   0.02409   0.47285   0.00000  Uiso   1.00
O136   O     0.57939   0.03438   0.49454   0.00000  Uiso   1.00
C137   C     0.69104   0.16362   0.61289   0.00000  Uiso   1.00
C138   C     0.59283   0.20528   0.51531   0.00000  Uiso   1.00
C139   C     0.51927   0.26389   0.69802   0.00000  Uiso   1.00
O140   O     0.87311   0.12287   0.26511   0.00000  Uiso   1.00
O141   O     0.70356   0.07796   0.25896   0.00000  Uiso   1.00
O142   O     0.76138   0.01724   0.36332   0.00000  Uiso   1.00
C143   C     1.09928   0.24891   0.74874   0.00000  Uiso   1.00
C144   C     1.22181   0.20459   0.82993   0.00000  Uiso   1.00
C145   C     1.12902   1.09454   0.68945   0.00000  Uiso   1.00
O146   O     0.61306   0.08267   0.80369   0.00000  Uiso   1.00
O147   O     0.73997   0.18064   0.90951   0.00000  Uiso   1.00
O148   O     0.59038   0.17742   0.91433   0.00000  Uiso   1.00
O149   O     0.71338   0.22356   0.20607   0.00000  Uiso   1.00
O150   O     0.75000   0.22646   0.06017   0.00000  Uiso   1.00
C151   C     0.77303   0.39918   0.14210   0.00000  Uiso   1.00
C152   C     0.89416   0.33691   0.15788   0.00000  Uiso   1.00
O153   O     0.75025   0.20764   0.47607   0.00000  Uiso   1.00
O154   O     0.82022   0.21629   0.35375   0.00000  Uiso   1.00
O155   O     0.90936   0.37551   0.45411   0.00000  Uiso   1.00
C156   C     0.58471   0.40164   0.50262   0.00000  Uiso   1.00
C157   C     0.62563   0.52100   0.64467   0.00000  Uiso   1.00
C158   C     0.88973   0.49343   0.31895   0.00000  Uiso   1.00
C159   C     0.67016   0.38059   0.30205   0.00000  Uiso   1.00
O160   O     0.76226   0.34197   0.39970   0.00000  Uiso   1.00
O161   O     0.71513   0.27238   0.81155   0.00000  Uiso   1.00
C162   C     0.87161   0.29250   0.73978   0.00000  Uiso   1.00
C163   C     0.87174   0.45118   0.83218   0.00000  Uiso   1.00
C164   C     0.67381   0.47465   0.82787   0.00000  Uiso   1.00
C165   C     0.80879   0.60314   0.94401   0.00000  Uiso   1.00
C166   C     0.76784   0.69659   0.83426   0.00000  Uiso   1.00
O167   O     0.63302   0.57251   0.93799   0.00000  Uiso   1.00
O168   O     0.90624   0.47792   0.57449   0.00000  Uiso   1.00
O169   O     0.73577   0.44247   0.58243   0.00000  Uiso   1.00
O170   O     0.78330   0.38124   0.69208   0.00000  Uiso   1.00
C171   C     0.86648   0.58992   0.67055   0.00000  Uiso   1.00
C172   C     0.61092   0.64636   0.16645   0.00000  Uiso   1.00
C173   C     0.72466   0.85753   0.20761   0.00000  Uiso   1.00
C174   C     0.71044   0.99103   0.06832   0.00000  Uiso   1.00
C175   C     0.54890   0.73205   0.29047   0.00000  Uiso   1.00
C176   C     0.98755   0.94849   0.96821   0.00000  Uiso   1.00
C177   C     0.78048   0.83603  -0.00518   0.00000  Uiso   1.00
O178   O     0.89079   1.03809   0.01556   0.00000  Uiso   1.00
O179   O     0.74546   0.58757   0.52546   0.00000  Uiso   1.00
O180   O     0.77221   0.52314   0.40342   0.00000  Uiso   1.00
O181   O     0.90589   0.69150   0.46164   0.00000  Uiso   1.00
C182   C     0.57110   0.70578   0.49216   0.00000  Uiso   1.00
C183   C     0.72669   0.86340   0.59365   0.00000  Uiso   1.00
O184   O     0.68285   0.89965   0.46415   0.00000  Uiso   1.00
O185   O     0.56675   0.85903   0.56789   0.00000  Uiso   1.00
O186   O     0.86551   0.77622   0.29579   0.00000  Uiso   1.00
O187   O     0.69471   0.71196   0.30234   0.00000  Uiso   1.00
O188   O     0.76308   0.68508   0.40852   0.00000  Uiso   1.00
O189   O     0.79701   0.87164   0.38007   0.00000  Uiso   1.00
C190   C     0.63991   0.88939   0.80465   0.00000  Uiso   1.00
C191   C     0.86369   0.93604   0.73914   0.00000  Uiso   1.00
O192   O     0.86931   0.95757   0.88800   0.00000  Uiso   1.00
O193   O     1.02521   1.07735   0.81945   0.00000  Uiso   1.00
C194   C     0.87201   1.10661   0.82629   0.00000  Uiso   1.00
C195   C     0.49668   0.80561   0.96128   0.00000  Uiso   1.00
H196   H     0.00721   0.20827  -0.03934   0.00000  Uiso   1.00
H197   H     0.10414   0.23952  -0.09902   0.00000  Uiso   1.00
H198   H     0.07847   0.32607  -0.06727   0.00000  Uiso   1.00
H199   H     0.26232   0.43970   0.99180   0.00000  Uiso   1.00
H200   H     0.28984   0.35536   0.96169   0.00000  Uiso   1.00
H201   H     0.30578   0.42223   1.05441   0.00000  Uiso   1.00
H202   H     0.17758   0.21259   1.10916   0.00000  Uiso   1.00
H203   H     0.16911   0.16353   1.01742   0.00000  Uiso   1.00
H204   H     0.06555   0.13599   1.06430   0.00000  Uiso   1.00
H205   H     0.07180   0.11427   0.45753   0.00000  Uiso   1.00
H206   H     0.02407   0.03228   0.52148   0.00000  Uiso   1.00
H207   H     0.09368   0.16286   0.54931   0.00000  Uiso   1.00
H208   H     0.05599   0.27574   0.45765   0.00000  Uiso   1.00
H209   H    -0.05963   0.25289   0.45434   0.00000  Uiso   1.00
H210   H    -0.02468   0.18635   0.39479   0.00000  Uiso   1.00
H211   H     0.89841   0.08253   0.62916   0.00000  Uiso   1.00
H212   H     0.85757   0.15233   0.59450   0.00000  Uiso   1.00
H213   H     0.97790   0.21919   0.61502   0.00000  Uiso   1.00
H214   H    -0.08070  -0.06112   0.26335   0.00000  Uiso   1.00
H215   H    -0.01980   0.03093   0.33925   0.00000  Uiso   1.00
H216   H     0.01978  -0.03746   0.30025   0.00000  Uiso   1.00
H217   H     0.20001   0.22457   0.23864   0.00000  Uiso   1.00
H218   H     0.17133   0.16178   0.32291   0.00000  Uiso   1.00
H219   H     0.12449   0.23302   0.30464   0.00000  Uiso   1.00
H220   H     0.19254   0.09600   0.15712   0.00000  Uiso   1.00
H221   H     0.09025  -0.01113   0.12383   0.00000  Uiso   1.00
H222   H     0.12848  -0.02118   0.20544   0.00000  Uiso   1.00
H223   H    -0.02138  -0.10499   0.78151   0.00000  Uiso   1.00
H224   H    -0.06812  -0.22304   0.73281   0.00000  Uiso   1.00
H225   H     0.02335  -0.10588   0.69089   0.00000  Uiso   1.00
H226   H     0.21949   0.01876   0.78368   0.00000  Uiso   1.00
H227   H     0.21236  -0.03181   0.86905   0.00000  Uiso   1.00
H228   H     0.12613  -0.00634   0.84803   0.00000  Uiso   1.00
H229   H    -0.00457   0.77649   0.89044   0.00000  Uiso   1.00
H230   H     0.09219   0.76744   0.87847   0.00000  Uiso   1.00
H231   H     0.00632   0.68939   0.82025   0.00000  Uiso   1.00
H232   H     0.21336   0.63124   0.27670   0.00000  Uiso   1.00
H233   H     0.25954   0.72387   0.20865   0.00000  Uiso   1.00
H234   H     0.30638   0.64657   0.21827   0.00000  Uiso   1.00
H235   H     0.02383   0.55499   1.11219   0.00000  Uiso   1.00
H236   H     0.10288   0.66759   1.15350   0.00000  Uiso   1.00
H237   H     0.02411   0.57358   1.21232   0.00000  Uiso   1.00
H238   H     0.15424   0.51599   1.02848   0.00000  Uiso   1.00
H239   H     0.25698   0.54387   1.07449   0.00000  Uiso   1.00
H240   H     0.23886   0.63798   1.05719   0.00000  Uiso   1.00
H241   H     0.07916   0.34767   0.32968   0.00000  Uiso   1.00
H242   H     0.06245   0.45120   0.32323   0.00000  Uiso   1.00
H243   H     0.04826   0.40248   0.40741   0.00000  Uiso   1.00
H244   H     0.31366   0.50660   0.44771   0.00000  Uiso   1.00
H245   H     0.19990   0.38769   0.44627   0.00000  Uiso   1.00
H246   H     0.21924   0.49414   0.50273   0.00000  Uiso   1.00
H247   H     0.24891   0.33088   0.54049   0.00000  Uiso   1.00
H248   H     0.17784   0.37037   0.59235   0.00000  Uiso   1.00
H249   H     0.18917   0.27846   0.62817   0.00000  Uiso   1.00
H250   H     0.46037   0.59112   0.61255   0.00000  Uiso   1.00
H251   H     0.35898   0.55079   0.56382   0.00000  Uiso   1.00
H252   H     0.42241   0.49086   0.53886   0.00000  Uiso   1.00
H253   H     0.45082   0.46535   0.70710   0.00000  Uiso   1.00
H254   H     0.39212   0.35319   0.64558   0.00000  Uiso   1.00
H255   H     0.34101   0.35132   0.72771   0.00000  Uiso   1.00
H256   H    -0.04102   0.34191   0.58515   0.00000  Uiso   1.00
H257   H     0.05320   0.46162   0.61403   0.00000  Uiso   1.00
H258   H     0.07271   0.40732   0.53794   0.00000  Uiso   1.00
H259   H     0.20568   0.39109   0.84762   0.00000  Uiso   1.00
H260   H     0.20254   0.48462   0.89342   0.00000  Uiso   1.00
H261   H     0.31177   0.49468   0.86244   0.00000  Uiso   1.00
H262   H     0.09322   0.48383   0.72220   0.00000  Uiso   1.00
H263   H     0.06689   0.40224   0.78980   0.00000  Uiso   1.00
H264   H     0.10374   0.38828   0.69530   0.00000  Uiso   1.00
H265   H     0.01179   0.70238   0.27115   0.00000  Uiso   1.00
H266   H     0.06201   0.82811   0.25879   0.00000  Uiso   1.00
H267   H     0.03387   0.74771   0.17618   0.00000  Uiso   1.00
H268   H    -0.16078   0.76931   0.11628   0.00000  Uiso   1.00
H269   H    -0.04483   0.79949   0.10144   0.00000  Uiso   1.00
H270   H    -0.05984   0.88430   0.15683   0.00000  Uiso   1.00
H271   H     0.80228   0.57058   0.24682   0.00000  Uiso   1.00
H272   H     0.83376   0.59272   0.15015   0.00000  Uiso   1.00
H273   H     0.74334   0.59837   0.19655   0.00000  Uiso   1.00
H274   H     0.09257   0.70446   0.39510   0.00000  Uiso   1.00
H275   H     0.21407   0.75739   0.36727   0.00000  Uiso   1.00
H276   H     0.18576   0.81030   0.44292   0.00000  Uiso   1.00
H277   H     0.07279   0.85212   0.39419   0.00000  Uiso   1.00
H278   H     0.09940   0.95125   0.47442   0.00000  Uiso   1.00
H279   H    -0.00270   0.89715   0.41712   0.00000  Uiso   1.00
H280   H     0.87049   0.77431   0.60764   0.00000  Uiso   1.00
H281   H     0.86437   0.83091   0.53110   0.00000  Uiso   1.00
H282   H     0.96694   0.90122   0.58612   0.00000  Uiso   1.00
H283   H     0.09567   0.53998   0.88355   0.00000  Uiso   1.00
H284   H     0.06318   0.56074   0.80485   0.00000  Uiso   1.00
H285   H     0.07404   0.63421   0.88593   0.00000  Uiso   1.00
H286   H     0.12679   0.83558   0.55351   0.00000  Uiso   1.00
H287   H     0.04563   0.70389   0.53577   0.00000  Uiso   1.00
H288   H     0.02795   0.76317   0.61361   0.00000  Uiso   1.00
H289   H     0.15484   0.61186   0.64413   0.00000  Uiso   1.00
H290   H     0.08837   0.64093   0.61137   0.00000  Uiso   1.00
H291   H     0.06278   0.58787   0.69693   0.00000  Uiso   1.00
H292   H     0.36915   0.95290   0.13612   0.00000  Uiso   1.00
H293   H     0.38549   1.06234   0.10877   0.00000  Uiso   1.00
H294   H     0.42175   1.06460   0.19151   0.00000  Uiso   1.00
H295   H     0.72063   0.36717  -0.00706   0.00000  Uiso   1.00
H296   H     0.63319   0.37313   0.05551   0.00000  Uiso   1.00
H297   H     0.61420   0.36463  -0.03148   0.00000  Uiso   1.00
H298   H     0.44319   0.21116   1.04654   0.00000  Uiso   1.00
H299   H     0.40570   0.11459   0.97552   0.00000  Uiso   1.00
H300   H     0.46052   0.24304   0.95707   0.00000  Uiso   1.00
H301   H     0.44320   0.79523   0.44677   0.00000  Uiso   1.00
H302   H     0.54418   0.87722   0.40705   0.00000  Uiso   1.00
H303   H     0.44586   0.83629   0.35878   0.00000  Uiso   1.00
H304   H     0.33014  -0.07051   0.25316   0.00000  Uiso   1.00
H305   H     0.34324  -0.13039   0.31432   0.00000  Uiso   1.00
H306   H     0.42800  -0.08702   0.23388   0.00000  Uiso   1.00
H307   H     0.45371   0.18377   0.29815   0.00000  Uiso   1.00
H308   H     0.43848   0.17080   0.39680   0.00000  Uiso   1.00
H309   H     0.34756   0.08031   0.33165   0.00000  Uiso   1.00
H310   H     0.29903   0.10241   0.66562   0.00000  Uiso   1.00
H311   H     0.30082  -0.00025   0.68438   0.00000  Uiso   1.00
H312   H     0.37612   0.06847   0.61288   0.00000  Uiso   1.00
H313   H     0.37598   0.06319   0.83736   0.00000  Uiso   1.00
H314   H     0.36936   0.17349   0.82673   0.00000  Uiso   1.00
H315   H     0.47329   0.19644   0.84486   0.00000  Uiso   1.00
H316   H     0.38295   0.47303   0.14786   0.00000  Uiso   1.00
H317   H     0.44726   0.57967   0.20995   0.00000  Uiso   1.00
H318   H     0.34753   0.55095   0.15754   0.00000  Uiso   1.00
H319   H     0.48013   0.45478   0.07881   0.00000  Uiso   1.00
H320   H     0.57949   0.45932   0.05696   0.00000  Uiso   1.00
H321   H     0.46650   0.35981   0.01741   0.00000  Uiso   1.00
H322   H     0.43336   0.57113  -0.05592   0.00000  Uiso   1.00
H323   H     0.54909   0.66366  -0.02100   0.00000  Uiso   1.00
H324   H     0.45204   0.58373   0.03959   0.00000  Uiso   1.00
H325   H     0.48423   0.47598   0.83256   0.00000  Uiso   1.00
H326   H     0.39532   0.37766   0.88363   0.00000  Uiso   1.00
H327   H     0.50014   0.38390   0.86365   0.00000  Uiso   1.00
H328   H     0.31906   0.20223   0.34696   0.00000  Uiso   1.00
H329   H     0.29595   0.28975   0.39873   0.00000  Uiso   1.00
H330   H     0.39859   0.30193   0.41081   0.00000  Uiso   1.00
H331   H     0.54718   0.54244   0.30496   0.00000  Uiso   1.00
H332   H     0.56398   0.46583   0.34400   0.00000  Uiso   1.00
H333   H     0.49141   0.49168   0.38836   0.00000  Uiso   1.00
H334   H     0.43995   0.27489   0.22361   0.00000  Uiso   1.00
H335   H     0.45256   0.37570   0.18376   0.00000  Uiso   1.00
H336   H     0.34683   0.26503   0.18053   0.00000  Uiso   1.00
H337   H     0.41875   0.79653   0.15317   0.00000  Uiso   1.00
H338   H     0.54102   0.84308   0.12744   0.00000  Uiso   1.00
H339   H     0.45477   0.72446   0.09063   0.00000  Uiso   1.00
H340   H     0.43149   0.61379   0.78081   0.00000  Uiso   1.00
H341   H     0.42036   0.70818   0.83639   0.00000  Uiso   1.00
H342   H     0.49887   0.68533   0.85766   0.00000  Uiso   1.00
H343   H     0.57636   0.63460   0.73883   0.00000  Uiso   1.00
H344   H     0.68756   0.74514   0.72375   0.00000  Uiso   1.00
H345   H     0.59672   0.69211   0.65552   0.00000  Uiso   1.00
H346   H     0.29514   0.91778   0.90384   0.00000  Uiso   1.00
H347   H     0.39106   0.96816   0.96217   0.00000  Uiso   1.00
H348   H     0.27804   0.94597   0.99794   0.00000  Uiso   1.00
H349   H     0.45112   0.98082   0.86004   0.00000  Uiso   1.00
H350   H     0.42804   0.86642   0.81886   0.00000  Uiso   1.00
H351   H     0.37408   0.92523   0.78676   0.00000  Uiso   1.00
H352   H     0.13151   0.67034   1.01493   0.00000  Uiso   1.00
H353   H     0.11677   0.75496   0.98899   0.00000  Uiso   1.00
H354   H     0.16315   0.77549   1.07619   0.00000  Uiso   1.00
H355   H     0.92369   0.34640   0.91470   0.00000  Uiso   1.00
H356   H     0.95469   0.36690   1.01205   0.00000  Uiso   1.00
H357   H     0.88151   0.39516   0.97455   0.00000  Uiso   1.00
H358   H     0.76045   0.23627   0.61597   0.00000  Uiso   1.00
H359   H     0.69939   0.10497   0.62731   0.00000  Uiso   1.00
H360   H     0.64799   0.17138   0.65457   0.00000  Uiso   1.00
H361   H     0.63078   0.27354   0.54452   0.00000  Uiso   1.00
H362   H     0.52418   0.16579   0.54092   0.00000  Uiso   1.00
H363   H     0.59322   0.21918   0.45763   0.00000  Uiso   1.00
H364   H     0.59561   0.28979   0.69543   0.00000  Uiso   1.00
H365   H     0.50685   0.31155   0.73846   0.00000  Uiso   1.00
H366   H     0.50241   0.27527   0.64705   0.00000  Uiso   1.00
H367   H     1.16761   0.31314   0.73398   0.00000  Uiso   1.00
H368   H     1.06385   0.26339   0.79573   0.00000  Uiso   1.00
H369   H     1.05062   0.22278   0.70531   0.00000  Uiso   1.00
H370   H     1.21082   0.16224   0.87806   0.00000  Uiso   1.00
H371   H     1.24622   0.28021   0.84408   0.00000  Uiso   1.00
H372   H     1.26538   0.20277   0.78893   0.00000  Uiso   1.00
H373   H     1.06585   1.06376   0.65997   0.00000  Uiso   1.00
H374   H     1.13303   1.03411   0.70357   0.00000  Uiso   1.00
H375   H     1.18910   1.13771   0.65744   0.00000  Uiso   1.00
H376   H     0.80532   0.42839   0.08785   0.00000  Uiso   1.00
H377   H     0.81437   0.44715   0.18701   0.00000  Uiso   1.00
H378   H     0.70094   0.38106   0.15110   0.00000  Uiso   1.00
H379   H     0.92574   0.31647   0.11265   0.00000  Uiso   1.00
H380   H     0.89254   0.30965   0.21267   0.00000  Uiso   1.00
H381   H     0.92852   0.40972   0.16379   0.00000  Uiso   1.00
H382   H     0.53798   0.33385   0.53027   0.00000  Uiso   1.00
H383   H     0.61165   0.38978   0.45271   0.00000  Uiso   1.00
H384   H     0.54784   0.43937   0.48653   0.00000  Uiso   1.00
H385   H     0.67149   0.57671   0.68513   0.00000  Uiso   1.00
H386   H     0.58420   0.45468   0.67430   0.00000  Uiso   1.00
H387   H     0.58272   0.53724   0.62427   0.00000  Uiso   1.00
H388   H     0.90383   0.55663   0.29118   0.00000  Uiso   1.00
H389   H     0.88966   0.43047   0.29319   0.00000  Uiso   1.00
H390   H     0.93525   0.52047   0.36191   0.00000  Uiso   1.00
H391   H     0.67008   0.32980   0.25982   0.00000  Uiso   1.00
H392   H     0.67279   0.43716   0.27176   0.00000  Uiso   1.00
H393   H     0.60492   0.33565   0.33357   0.00000  Uiso   1.00
H394   H     0.82698   0.21377   0.71866   0.00000  Uiso   1.00
H395   H     0.90783   0.29970   0.79223   0.00000  Uiso   1.00
H396   H     0.92886   0.33714   0.70200   0.00000  Uiso   1.00
H397   H     0.92418   0.44415   0.85741   0.00000  Uiso   1.00
H398   H     0.82181   0.43915   0.87449   0.00000  Uiso   1.00
H399   H     0.90178   0.52120   0.80683   0.00000  Uiso   1.00
H400   H     0.63897   0.40654   0.85576   0.00000  Uiso   1.00
H401   H     0.73559   0.48082   0.79738   0.00000  Uiso   1.00
H402   H     0.62816   0.46616   0.78902   0.00000  Uiso   1.00
H403   H     0.86403   0.61562   0.90514   0.00000  Uiso   1.00
H404   H     0.78607   0.54158   0.97747   0.00000  Uiso   1.00
H405   H     0.83986   0.66866   0.98144   0.00000  Uiso   1.00
H406   H     0.83963   0.74045   0.84581   0.00000  Uiso   1.00
H407   H     0.73709   0.73907   0.85178   0.00000  Uiso   1.00
H408   H     0.75607   0.67775   0.78012   0.00000  Uiso   1.00
H409   H     0.88327   0.63634   0.62681   0.00000  Uiso   1.00
H410   H     0.92957   0.61513   0.70296   0.00000  Uiso   1.00
H411   H     0.81301   0.59089   0.70700   0.00000  Uiso   1.00
H412   H     0.56646   0.57334   0.17799   0.00000  Uiso   1.00
H413   H     0.67187   0.66249   0.13254   0.00000  Uiso   1.00
H414   H     0.56288   0.65368   0.13164   0.00000  Uiso   1.00
H415   H     0.67993   0.86459   0.17686   0.00000  Uiso   1.00
H416   H     0.77504   0.85124   0.17541   0.00000  Uiso   1.00
H417   H     0.75722   0.91778   0.24796   0.00000  Uiso   1.00
H418   H     0.67931   1.01996   0.04668   0.00000  Uiso   1.00
H419   H     0.69179   0.98271   0.12548   0.00000  Uiso   1.00
H420   H     0.69145   0.91868   0.04506   0.00000  Uiso   1.00
H421   H     0.58065   0.78231   0.33781   0.00000  Uiso   1.00
H422   H     0.49931   0.66122   0.31072   0.00000  Uiso   1.00
H423   H     0.52082   0.76033   0.25293   0.00000  Uiso   1.00
H424   H     0.99633   0.92059   0.91431   0.00000  Uiso   1.00
H425   H     0.98251   0.90040   1.00536   0.00000  Uiso   1.00
H426   H     1.04957   1.02443   0.97553   0.00000  Uiso   1.00
H427   H     0.78231   0.84504   0.05555   0.00000  Uiso   1.00
H428   H     0.78648   0.77176  -0.01973   0.00000  Uiso   1.00
H429   H     0.71549   0.82429  -0.02579   0.00000  Uiso   1.00
H430   H     0.59890   0.70692   0.43709   0.00000  Uiso   1.00
H431   H     0.49666   0.66567   0.48951   0.00000  Uiso   1.00
H432   H     0.58772   0.65874   0.51587   0.00000  Uiso   1.00
H433   H     0.72726   0.79501   0.59319   0.00000  Uiso   1.00
H434   H     0.70142   0.87161   0.64859   0.00000  Uiso   1.00
H435   H     0.79623   0.92447   0.58885   0.00000  Uiso   1.00
H436   H     0.59707   0.91887   0.82080   0.00000  Uiso   1.00
H437   H     0.69987   0.93569   0.77515   0.00000  Uiso   1.00
H438   H     0.65748   0.87143   0.85516   0.00000  Uiso   1.00
H439   H     0.81347   0.94715   0.72350   0.00000  Uiso   1.00
H440   H     0.83038   0.85273   0.74238   0.00000  Uiso   1.00
H441   H     0.91459   0.94649   0.69642   0.00000  Uiso   1.00
H442   H     0.92162   1.17850   0.85331   0.00000  Uiso   1.00
H443   H     0.80386   1.07855   0.85163   0.00000  Uiso   1.00
H444   H     0.86604   1.11561   0.77051   0.00000  Uiso   1.00
H445   H     0.50491   0.84654   0.91607   0.00000  Uiso   1.00
H446   H     0.44215   0.72898   0.94572   0.00000  Uiso   1.00
H447   H     0.55906   0.80996   0.97546   0.00000  Uiso   1.00
loop_
_geom_bond_atom_site_label_1
_geom_bond_atom_site_label_2
_geom_bond_distance
_geom_bond_site_symmetry_2
_ccdc_geom_bond_type
Si1    O58     1.626   .     S
Si1    O65     1.631   .     S
Si1    O130    1.608   1_455 S
Si1    O140    1.573   1_455 S
Si2    C52     1.834   .     S
Si2    O66     1.545   .     S
Si2    C53     1.858   1_554 S
Si2    C54     1.800   1_554 S
Si3    C55     1.886   .     S
Si3    C56     1.846   .     S
Si3    C57     1.783   1_455 S
Si3    O135    1.599   1_455 S
Si4    O58     1.579   .     S
Si4    C59     1.791   .     S
Si4    C60     1.921   .     S
Si4    C61     1.889   .     S
Si5    C62     1.846   .     S
Si5    C63     1.852   .     S
Si5    C64     1.848   1_545 S
Si5    O93     1.601   1_545 S
Si6    O65     1.574   .     S
Si6    O66     1.580   .     S
Si6    O67     1.606   .     S
Si6    O105    1.610   .     S
Si7    O67     1.644   .     S
Si7    C68     1.805   .     S
Si7    C69     1.870   1_554 S
Si7    C70     1.781   1_554 S
Si8    C76     1.820   .     S
Si8    O83     1.626   .     S
Si8    O155    1.646   1_455 S
Si8    O168    1.621   1_455 S
Si9    C71     1.886   .     S
Si9    C72     1.813   .     S
Si9    O84     1.626   .     S
Si9    O107    1.582   .     S
Si10   C73     1.847   .     S
Si10   C74     1.764   .     S
Si10   C75     1.878   .     S
Si10   O78     1.572   .     S
Si11   C77     1.905   .     S
Si11   O78     1.600   .     S
Si11   C79     1.834   .     S
Si11   O89     1.620   .     S
Si12   C80     1.901   .     S
Si12   C81     1.922   .     S
Si12   C82     1.788   1_455 S
Si12   O186    1.617   1_455 S
Si13   O83     1.712   .     S
Si13   O84     1.570   .     S
Si13   C85     1.857   .     S
Si13   O117    1.706   .     S
Si14   C86     1.816   .     S
Si14   C90     1.835   .     S
Si14   C87     1.838   1_455 S
Si14   O181    1.603   1_455 S
Si15   C88     1.801   .     S
Si15   O89     1.597   .     S
Si15   O92     1.598   .     S
Si15   O122    1.592   .     S
Si16   C91     1.877   .     S
Si16   O92     1.620   .     S
Si16   O93     1.567   .     S
Si16   O119    1.549   .     S
Si17   O95     1.612   .     S
Si17   O131    1.669   .     S
Si17   C94     1.895   1_545 S
Si17   O116    1.594   1_545 S
Si18   O95     1.672   .     S
Si18   C96     1.885   .     S
Si18   C97     1.896   1_554 S
Si18   O148    1.573   1_554 S
Si19   O100    1.570   .     S
Si19   O136    1.602   .     S
Si19   C98     1.919   1_545 S
Si19   O118    1.648   1_545 S
Si20   C99     1.907   .     S
Si20   O100    1.627   .     S
Si20   C101    1.878   .     S
Si20   O132    1.598   .     S
Si21   O103    1.594   .     S
Si21   O146    1.653   .     S
Si21   C125    1.831   1_545 S
Si21   O129    1.637   1_545 S
Si22   C102    1.848   .     S
Si22   O103    1.573   .     S
Si22   C104    1.830   .     S
Si22   C139    1.864   .     S
Si23   O105    1.612   .     S
Si23   C106    1.842   .     S
Si23   O107    1.584   .     S
Si23   O111    1.617   .     S
Si24   C108    1.821   .     S
Si24   C109    1.840   .     S
Si24   C110    1.852   1_554 S
Si24   O167    1.570   1_554 S
Si25   O111    1.632   .     S
Si25   C112    1.868   .     S
Si25   C113    1.860   .     S
Si25   C114    1.872   .     S
Si26   C115    1.803   .     S
Si26   O116    1.626   .     S
Si26   O123    1.598   1_554 S
Si26   C195    1.791   1_554 S
Si27   O117    1.639   .     S
Si27   O118    1.664   .     S
Si27   O119    1.612   .     S
Si27   O127    1.601   .     S
Si28   C120    1.844   .     S
Si28   C121    1.891   .     S
Si28   O128    1.581   .     S
Si28   C190    1.871   .     S
Si29   O122    1.592   .     S
Si29   O123    1.564   .     S
Si29   C124    1.870   .     S
Si29   C126    1.874   .     S
Si30   O127    1.593   .     S
Si30   O128    1.602   .     S
Si30   O129    1.628   .     S
Si30   O185    1.633   .     S
Si31   O130    1.600   .     S
Si31   O134    1.622   .     S
Si31   C174    1.855   1_545 S
Si31   O178    1.624   1_545 S
Si32   O131    1.594   .     S
Si32   O132    1.628   .     S
Si32   O141    1.612   .     S
Si32   O149    1.632   .     S
Si33   O134    1.532   .     S
Si33   O150    1.605   .     S
Si33   C133    1.916   1_554 S
Si33   O147    1.694   1_554 S
Si34   O135    1.604   .     S
Si34   O142    1.645   .     S
Si34   O184    1.602   1_545 S
Si34   O189    1.679   1_545 S
Si35   O136    1.607   .     S
Si35   C137    1.850   .     S
Si35   C138    1.793   .     S
Si35   O153    1.626   .     S
Si36   O140    1.572   .     S
Si36   O141    1.638   .     S
Si36   O142    1.696   .     S
Si36   O154    1.673   .     S
Si37   C143    1.866   .     S
Si37   C144    1.873   .     S
Si37   C145    1.872   1_545 S
Si37   O193    1.615   1_545 S
Si38   O146    1.604   .     S
Si38   O147    1.649   .     S
Si38   O148    1.591   .     S
Si38   O161    1.645   .     S
Si39   O149    1.590   .     S
Si39   O150    1.645   .     S
Si39   C151    1.891   .     S
Si39   C152    1.826   .     S
Si40   O153    1.596   .     S
Si40   O154    1.644   .     S
Si40   O155    1.682   .     S
Si40   O160    1.618   .     S
Si41   C156    1.885   .     S
Si41   C157    1.885   .     S
Si41   O169    1.601   .     S
Si41   O179    1.601   .     S
Si42   C158    1.799   .     S
Si42   C159    1.902   .     S
Si42   O160    1.669   .     S
Si42   O180    1.640   .     S
Si43   O161    1.593   .     S
Si43   C162    1.900   .     S
Si43   C163    1.874   .     S
Si43   O170    1.631   .     S
Si44   C164    1.848   .     S
Si44   C165    1.903   .     S
Si44   C166    1.854   .     S
Si44   O167    1.585   .     S
Si45   O168    1.655   .     S
Si45   O169    1.596   .     S
Si45   O170    1.703   .     S
Si45   C171    1.915   .     S
Si46   C172    1.826   .     S
Si46   C173    1.851   .     S
Si46   C175    1.870   .     S
Si46   O187    1.606   .     S
Si47   C177    1.822   .     S
Si47   O178    1.588   .     S
Si47   C176    1.831   1_554 S
Si47   O192    1.555   1_554 S
Si48   O179    1.629   .     S
Si48   O180    1.612   .     S
Si48   O181    1.594   .     S
Si48   O188    1.696   .     S
Si49   C182    1.859   .     S
Si49   C183    1.893   .     S
Si49   O184    1.537   .     S
Si49   O185    1.590   .     S
Si50   O186    1.627   .     S
Si50   O187    1.589   .     S
Si50   O188    1.668   .     S
Si50   O189    1.678   .     S
Si51   C191    1.899   .     S
Si51   O192    1.580   .     S
Si51   O193    1.624   .     S
Si51   C194    1.881   .     S
C52    H196    1.084   .     S
C52    H197    1.095   .     S
C52    H198    1.096   .     S
C53    H199    1.022   .     S
C53    H200    1.114   .     S
C53    H201    1.081   .     S
C53    Si2     1.858   1_556 S
C54    H202    1.091   .     S
C54    H203    1.062   .     S
C54    H204    1.107   .     S
C54    Si2     1.800   1_556 S
C55    H205    1.038   .     S
C55    H206    1.082   .     S
C55    H207    1.139   .     S
C56    H208    1.098   .     S
C56    H209    1.125   .     S
C56    H210    1.069   .     S
C57    H211    1.146   .     S
C57    H212    1.111   .     S
C57    H213    1.112   .     S
C57    Si3     1.783   1_655 S
C59    H214    1.045   .     S
C59    H215    1.095   .     S
C59    H216    1.068   .     S
C60    H217    1.114   .     S
C60    H218    1.109   .     S
C60    H219    1.094   .     S
C61    H220    1.133   .     S
C61    H221    1.076   .     S
C61    H222    1.163   .     S
C62    H223    1.056   .     S
C62    H224    1.153   .     S
C62    H225    1.132   .     S
C63    H226    1.137   .     S
C63    H227    1.141   .     S
C63    H228    1.088   .     S
C64    H229    1.112   .     S
C64    H230    1.078   .     S
C64    H231    1.130   .     S
C64    Si5     1.848   1_565 S
C68    H232    1.118   .     S
C68    H233    1.136   .     S
C68    H234    1.153   .     S
C69    H235    1.056   .     S
C69    H236    1.069   .     S
C69    H237    1.169   .     S
C69    Si7     1.870   1_556 S
C70    H238    1.147   .     S
C70    H239    1.097   .     S
C70    H240    1.047   .     S
C70    Si7     1.781   1_556 S
C71    H241    1.103   .     S
C71    H242    1.116   .     S
C71    H243    1.086   .     S
C72    H244    1.100   .     S
C72    H245    1.114   .     S
C72    H246    1.110   .     S
C73    H247    1.111   .     S
C73    H248    1.126   .     S
C73    H249    1.169   .     S
C74    H250    1.141   .     S
C74    H251    1.115   .     S
C74    H252    1.083   .     S
C75    H253    1.110   .     S
C75    H254    1.027   .     S
C75    H255    1.094   .     S
C76    H256    1.106   .     S
C76    H257    1.092   .     S
C76    H258    1.100   .     S
C77    H259    1.111   .     S
C77    H260    1.104   .     S
C77    H261    1.093   .     S
C79    H262    1.075   .     S
C79    H263    1.110   .     S
C79    H264    1.077   .     S
C80    H265    1.151   .     S
C80    H266    1.097   .     S
C80    H267    1.119   .     S
C81    H268    1.131   .     S
C81    H269    1.122   .     S
C81    H270    1.151   .     S
C82    H271    1.084   .     S
C82    H272    1.086   .     S
C82    H273    1.095   .     S
C82    Si12    1.788   1_655 S
C85    H274    1.126   .     S
C85    H275    1.039   .     S
C85    H276    1.136   .     S
C86    H277    1.160   .     S
C86    H278    1.152   .     S
C86    H279    1.131   .     S
C87    H280    1.141   .     S
C87    H281    1.100   .     S
C87    H282    1.127   .     S
C87    Si14    1.838   1_655 S
C88    H283    1.112   .     S
C88    H284    1.123   .     S
C88    H285    1.097   .     S
C90    H286    1.170   .     S
C90    H287    1.059   .     S
C90    H288    1.112   .     S
C91    H289    1.102   .     S
C91    H290    1.080   .     S
C91    H291    1.084   .     S
O93    Si5     1.601   1_565 S
C94    H292    1.072   .     S
C94    H293    1.104   .     S
C94    H294    1.071   .     S
C94    Si17    1.895   1_565 S
C96    H295    1.083   .     S
C96    H296    1.124   .     S
C96    H297    1.103   .     S
C97    H298    1.051   .     S
C97    H299    1.131   .     S
C97    H300    1.113   .     S
C97    Si18    1.896   1_556 S
C98    H301    1.084   .     S
C98    H302    1.065   .     S
C98    H303    1.112   .     S
C98    Si19    1.919   1_565 S
C99    H304    1.126   .     S
C99    H305    1.160   .     S
C99    H306    1.178   .     S
C101   H307    1.154   .     S
C101   H308    1.108   .     S
C101   H309    1.105   .     S
C102   H310    1.140   .     S
C102   H311    1.155   .     S
C102   H312    1.104   .     S
C104   H313    1.067   .     S
C104   H314    1.100   .     S
C104   H315    1.161   .     S
C106   H316    1.070   .     S
C106   H317    1.123   .     S
C106   H318    1.094   .     S
C108   H319    1.092   .     S
C108   H320    1.098   .     S
C108   H321    1.156   .     S
C109   H322    1.087   .     S
C109   H323    1.089   .     S
C109   H324    1.176   .     S
C110   H325    1.133   .     S
C110   H326    1.103   .     S
C110   H327    1.122   .     S
C110   Si24    1.852   1_556 S
C112   H328    1.157   .     S
C112   H329    1.071   .     S
C112   H330    1.083   .     S
C113   H331    1.091   .     S
C113   H332    1.089   .     S
C113   H333    1.078   .     S
C114   H334    1.104   .     S
C114   H335    1.047   .     S
C114   H336    1.087   .     S
C115   H337    1.112   .     S
C115   H338    1.144   .     S
C115   H339    1.076   .     S
O116   Si17    1.594   1_565 S
O118   Si19    1.648   1_565 S
C120   H340    1.121   .     S
C120   H341    1.084   .     S
C120   H342    1.070   .     S
C121   H343    1.130   .     S
C121   H344    1.132   .     S
C121   H345    1.121   .     S
O123   Si26    1.598   1_556 S
C124   H346    1.086   .     S
C124   H347    1.127   .     S
C124   H348    1.127   .     S
C125   H349    1.123   .     S
C125   H350    1.113   .     S
C125   H351    1.069   .     S
C125   Si21    1.831   1_565 S
C126   H352    1.056   .     S
C126   H353    1.095   .     S
C126   H354    1.118   .     S
O129   Si21    1.637   1_565 S
O130   Si1     1.608   1_655 S
C133   H355    1.092   .     S
C133   H356    1.100   .     S
C133   H357    1.066   .     S
C133   Si33    1.916   1_556 S
O135   Si3     1.599   1_655 S
C137   H358    1.143   .     S
C137   H359    1.114   .     S
C137   H360    1.089   .     S
C138   H361    1.056   .     S
C138   H362    1.098   .     S
C138   H363    1.126   .     S
C139   H364    1.151   .     S
C139   H365    1.131   .     S
C139   H366    1.083   .     S
O140   Si1     1.573   1_655 S
C143   H367    1.114   .     S
C143   H368    1.119   .     S
C143   H369    1.095   .     S
C144   H370    1.137   .     S
C144   H371    1.083   .     S
C144   H372    1.049   .     S
C145   H373    1.094   .     S
C145   H374    1.095   .     S
C145   H375    1.066   .     S
C145   Si37    1.872   1_565 S
O147   Si33    1.694   1_556 S
O148   Si18    1.573   1_556 S
C151   H376    1.139   .     S
C151   H377    1.088   .     S
C151   H378    1.123   .     S
C152   H379    1.100   .     S
C152   H380    1.154   .     S
C152   H381    1.002   .     S
O155   Si8     1.646   1_655 S
C156   H382    1.111   .     S
C156   H383    1.064   .     S
C156   H384    1.181   .     S
C157   H385    1.096   .     S
C157   H386    1.105   .     S
C157   H387    1.030   .     S
C158   H388    1.107   .     S
C158   H389    1.099   .     S
C158   H390    1.054   .     S
C159   H391    1.092   .     S
C159   H392    1.118   .     S
C159   H393    1.119   .     S
C162   H394    1.131   .     S
C162   H395    1.169   .     S
C162   H396    1.110   .     S
C163   H397    1.124   .     S
C163   H398    1.079   .     S
C163   H399    1.114   .     S
C164   H400    1.107   .     S
C164   H401    1.138   .     S
C164   H402    1.062   .     S
C165   H403    1.098   .     S
C165   H404    1.109   .     S
C165   H405    1.102   .     S
C166   H406    1.072   .     S
C166   H407    1.106   .     S
C166   H408    1.033   .     S
O167   Si24    1.570   1_556 S
O168   Si8     1.621   1_655 S
C171   H409    1.090   .     S
C171   H410    1.139   .     S
C171   H411    1.119   .     S
C172   H412    1.048   .     S
C172   H413    1.107   .     S
C172   H414    1.162   .     S
C173   H415    1.065   .     S
C173   H416    1.074   .     S
C173   H417    1.084   .     S
C174   H418    1.021   .     S
C174   H419    1.096   .     S
C174   H420    1.098   .     S
C174   Si31    1.855   1_565 S
C175   H421    1.096   .     S
C175   H422    1.089   .     S
C175   H423    1.149   .     S
C176   H424    1.103   .     S
C176   H425    1.071   .     S
C176   H426    1.120   .     S
C176   Si47    1.831   1_556 S
C177   H427    1.134   .     S
C177   H428    1.125   .     S
C177   H429    1.131   .     S
O178   Si31    1.624   1_565 S
O181   Si14    1.603   1_655 S
C182   H430    1.104   .     S
C182   H431    1.088   .     S
C182   H432    1.104   .     S
C183   H433    1.132   .     S
C183   H434    1.114   .     S
C183   H435    1.073   .     S
O184   Si34    1.602   1_565 S
O186   Si12    1.617   1_655 S
O189   Si34    1.679   1_565 S
C190   H436    1.104   .     S
C190   H437    1.050   .     S
C190   H438    1.130   .     S
C191   H439    1.054   .     S
C191   H440    1.167   .     S
C191   H441    1.100   .     S
O192   Si47    1.555   1_556 S
O193   Si37    1.615   1_565 S
C194   H442    1.108   .     S
C194   H443    1.098   .     S
C194   H444    1.091   .     S
C195   H445    1.089   .     S
C195   H446    1.110   .     S
C195   H447    1.100   .     S
C195   Si26    1.791   1_556 S
