data_333-7-11-18-15-30-14
_audit_creation_date              2025-03-07
_audit_creation_method            'Materials Studio'
_symmetry_space_group_name_H-M    'P1'
_symmetry_Int_Tables_number       1
_symmetry_cell_setting            triclinic
loop_
_symmetry_equiv_pos_as_xyz
  x,y,z
_cell_length_a                    17.2732
_cell_length_b                    18.6490
_cell_length_c                    17.3810
_cell_angle_alpha                 89.3312
_cell_angle_beta                  99.7759
_cell_angle_gamma                 112.5771
loop_
_atom_site_label
_atom_site_type_symbol
_atom_site_fract_x
_atom_site_fract_y
_atom_site_fract_z
_atom_site_U_iso_or_equiv
_atom_site_adp_type
_atom_site_occupancy
Si1    Si    0.13193   0.07418   0.07374   0.00000  Uiso   1.00
Si2    Si    0.19660   0.28939   0.21572   0.00000  Uiso   1.00
Si3    Si    0.03112   0.27818   0.74230   0.00000  Uiso   1.00
Si4    Si    0.15485   0.19739   0.58668   0.00000  Uiso   1.00
Si5    Si    0.16379   0.46860  -0.00360   0.00000  Uiso   1.00
Si6    Si   -0.09267   0.50947   0.14901   0.00000  Uiso   1.00
Si7    Si    0.28405   0.56384  -0.10754   0.00000  Uiso   1.00
Si8    Si    0.22083   0.42865   0.31138   0.00000  Uiso   1.00
Si9    Si    0.03238   0.47771   0.47128   0.00000  Uiso   1.00
Si10   Si    0.25009   0.60189   0.31011   0.00000  Uiso   1.00
Si11   Si    0.20351   0.34542   0.68910   0.00000  Uiso   1.00
Si12   Si    0.22499   0.68959   0.83242   0.00000  Uiso   1.00
Si13   Si    0.18921   0.47128   0.57036   0.00000  Uiso   1.00
Si14   Si    0.13731   0.63709   0.40937   0.00000  Uiso   1.00
Si15   Si   -0.07161   0.81468   0.94897   0.00000  Uiso   1.00
Si16   Si    0.55196   0.04219   0.13335   0.00000  Uiso   1.00
Si17   Si    0.29575   0.21335   0.14345   0.00000  Uiso   1.00
Si18   Si    0.50635   0.16664   0.03159   0.00000  Uiso   1.00
Si19   Si    0.19226  -0.12111   0.59731   0.00000  Uiso   1.00
Si20   Si    0.34939   0.10281   0.89738   0.00000  Uiso   1.00
Si21   Si    0.46656   0.30300   0.08727   0.00000  Uiso   1.00
Si22   Si    0.44078   0.42756  -0.01755   0.00000  Uiso   1.00
Si23   Si    0.60657   0.34135   0.52975   0.00000  Uiso   1.00
Si24   Si    0.31551   0.45495   0.47957   0.00000  Uiso   1.00
Si25   Si    0.52390   0.39948   0.38380   0.00000  Uiso   1.00
Si26   Si    0.43406   0.19945   0.77070   0.00000  Uiso   1.00
Si27   Si    0.34570   0.44934   0.82237   0.00000  Uiso   1.00
Si28   Si    0.41243   0.88382   0.13994   0.00000  Uiso   1.00
Si29   Si    0.67609   0.98159   0.08309   0.00000  Uiso   1.00
Si30   Si    0.49066   0.54017   0.43095   0.00000  Uiso   1.00
Si31   Si    0.26208   0.78664   0.50331   0.00000  Uiso   1.00
Si32   Si    0.49365   0.56655   0.74691   0.00000  Uiso   1.00
Si33   Si    0.62430   0.85260   0.95814   0.00000  Uiso   1.00
Si34   Si    0.64325   0.12008   0.29405   0.00000  Uiso   1.00
Si35   Si    0.79120   0.25625   0.02128   0.00000  Uiso   1.00
Si36   Si    0.70182  -0.17208   0.42854   0.00000  Uiso   1.00
Si37   Si    0.83763   0.17842   0.33473   0.00000  Uiso   1.00
Si38   Si    0.62430   0.14895   0.93142   0.00000  Uiso   1.00
Si39   Si    0.62345   0.05435   0.64861   0.00000  Uiso   1.00
Si40   Si    0.79073   0.41660  -0.00119   0.00000  Uiso   1.00
Si41   Si    0.59487   0.42337   0.22421   0.00000  Uiso   1.00
Si42   Si    0.86976   0.34910   0.36770   0.00000  Uiso   1.00
Si43   Si    0.76260   0.48542   0.59036   0.00000  Uiso   1.00
Si44   Si    0.78819   0.44820   0.26802   0.00000  Uiso   1.00
Si45   Si    0.68581   0.17857   0.78069   0.00000  Uiso   1.00
Si46   Si    0.95002   0.52685   0.59128   0.00000  Uiso   1.00
Si47   Si    0.65048   0.59550   0.20039   0.00000  Uiso   1.00
Si48   Si    0.98296   0.91334   0.32164   0.00000  Uiso   1.00
Si49   Si    0.60429   0.69472   0.51753   0.00000  Uiso   1.00
Si50   Si    0.88262   0.83485   0.44803   0.00000  Uiso   1.00
Si51   Si    0.92407   0.87790   0.78577   0.00000  Uiso   1.00
C52    C     0.05505   0.08602  -0.01346   0.00000  Uiso   1.00
C53    C     0.09435   1.06320   0.16606   0.00000  Uiso   1.00
C54    C     0.16995   0.99890   0.04838   0.00000  Uiso   1.00
C55    C     0.09746   0.27081   0.14766   0.00000  Uiso   1.00
C56    C     0.18295   0.22491   0.29937   0.00000  Uiso   1.00
C57    C     0.01178   0.18853   0.79491   0.00000  Uiso   1.00
C58    C     0.96423   0.24653   0.63902   0.00000  Uiso   1.00
C59    C     0.10073   0.22643   0.49638   0.00000  Uiso   1.00
C60    C     0.07947   0.10667   0.62588   0.00000  Uiso   1.00
C61    C     0.22796   0.16851   0.53819   0.00000  Uiso   1.00
C62    C     0.06798   0.49210  -0.04194   0.00000  Uiso   1.00
C63    C     0.16323   0.37512  -0.04131   0.00000  Uiso   1.00
C64    C     0.19159   0.47389   0.10605   0.00000  Uiso   1.00
C65    C    -0.04877   0.61346   0.12315   0.00000  Uiso   1.00
O66    O     0.24171   0.53575  -0.03320   0.00000  Uiso   1.00
C67    C     0.39291   0.63831  -0.08158   0.00000  Uiso   1.00
C68    C     0.10615   0.39267   0.31189   0.00000  Uiso   1.00
O69    O     0.23217   0.37243   0.24926   0.00000  Uiso   1.00
C70    C    -0.01183   0.47721   0.20575   0.00000  Uiso   1.00
C71    C     0.21449   0.64134   0.21887   0.00000  Uiso   1.00
O72    O     0.25227   0.51656   0.29116   0.00000  Uiso   1.00
C73    C     0.35473   0.67434   0.36601   0.00000  Uiso   1.00
O74    O     0.12929   0.32254   0.74035   0.00000  Uiso   1.00
O75    O     0.20531   0.26886   0.65054   0.00000  Uiso   1.00
O76    O     0.22952   0.60577   0.84229   0.00000  Uiso   1.00
C77    C     0.27675   0.73897   0.75153   0.00000  Uiso   1.00
C78    C     1.27449   0.75195   0.92722   0.00000  Uiso   1.00
O79    O     0.11205   0.45730   0.50313   0.00000  Uiso   1.00
O80    O     0.18271   0.39572   0.61702   0.00000  Uiso   1.00
C81    C     0.20711   0.55421   0.63868   0.00000  Uiso   1.00
O82    O     0.06872   0.56952   0.44539   0.00000  Uiso   1.00
O83    O     0.17973   0.59111   0.36552   0.00000  Uiso   1.00
C84    C     0.07956   0.68485   0.34448   0.00000  Uiso   1.00
C85    C    -0.06818   0.86588   1.04724   0.00000  Uiso   1.00
C86    C     0.02134   0.78304   0.95732   0.00000  Uiso   1.00
C87    C     0.82543   0.72659   0.93419   0.00000  Uiso   1.00
O88    O     0.21671   0.15504   0.07962   0.00000  Uiso   1.00
C89    C     0.33171   0.15965   0.22342   0.00000  Uiso   1.00
O90    O     0.26475   0.27483   0.17684   0.00000  Uiso   1.00
O91    O     0.52802   0.11273   0.09792   0.00000  Uiso   1.00
C92    C     0.16239  -0.06010   0.52352   0.00000  Uiso   1.00
C93    C     0.10777  -0.17123   0.65560   0.00000  Uiso   1.00
C94    C     0.28807   0.94448   0.66532   0.00000  Uiso   1.00
C95    C     0.29269  -0.00295   0.87825   0.00000  Uiso   1.00
O96    O     0.41320   0.11841   0.98607   0.00000  Uiso   1.00
C97    C     0.27011   0.14946   0.90091   0.00000  Uiso   1.00
O98    O     0.36982   0.25992   0.09829   0.00000  Uiso   1.00
O99    O     0.50620   0.24179   0.07051   0.00000  Uiso   1.00
O100   O     0.46173   0.35371   0.01476   0.00000  Uiso   1.00
C101   C     0.39726   0.46091   0.06105   0.00000  Uiso   1.00
C102   C     0.54256   0.50590   0.97127   0.00000  Uiso   1.00
C103   C     0.54560   0.35653   0.59911   0.00000  Uiso   1.00
C104   C     0.60198   0.23860   0.52632   0.00000  Uiso   1.00
O105   O     0.26236   0.41810   0.39891   0.00000  Uiso   1.00
C106   C     0.34556   0.38081   0.53532   0.00000  Uiso   1.00
O107   O     0.27009   0.48970   0.52989   0.00000  Uiso   1.00
C108   C     0.41606   0.32205   0.35149   0.00000  Uiso   1.00
O109   O     0.58087   0.36577   0.44158   0.00000  Uiso   1.00
O110   O     0.41214   0.13511   0.83249   0.00000  Uiso   1.00
C111   C     0.45906   0.16231   0.68169   0.00000  Uiso   1.00
C112   C     0.34040   0.22573   0.73212   0.00000  Uiso   1.00
C113   C     0.52087   0.29378   0.81647   0.00000  Uiso   1.00
O114   O     0.29134   0.39094   0.74781   0.00000  Uiso   1.00
O115   O     0.37716   0.40826   0.89812   0.00000  Uiso   1.00
O116   O     0.28774   0.49276   0.84502   0.00000  Uiso   1.00
C117   C     0.29568   0.86420   0.10458   0.00000  Uiso   1.00
C118   C     0.43496   0.80379   0.09966   0.00000  Uiso   1.00
O119   O     0.47132   0.96341   0.10811   0.00000  Uiso   1.00
C120   C     0.43893   0.88915   0.25138   0.00000  Uiso   1.00
C121   C     0.67937   0.92996   0.17547   0.00000  Uiso   1.00
O122   O     0.62788   1.03703   0.09863   0.00000  Uiso   1.00
C123   C     0.78603   1.04323   1.06869   0.00000  Uiso   1.00
O124   O     0.40007   0.51818   0.46000   0.00000  Uiso   1.00
O125   O     0.51153   0.46443   0.42868   0.00000  Uiso   1.00
C126   C     0.47423   0.56687   0.33066   0.00000  Uiso   1.00
O127   O     0.21158   0.69819   0.47188   0.00000  Uiso   1.00
C128   C     0.27939   0.85718   0.42287   0.00000  Uiso   1.00
O129   O     0.20576   0.81204   0.55240   0.00000  Uiso   1.00
C130   C     0.36437   0.79837   0.56657   0.00000  Uiso   1.00
O131   O     0.42861   0.51599   0.80058   0.00000  Uiso   1.00
C132   C     0.52638   0.50215   0.68751   0.00000  Uiso   1.00
C133   C     0.44846   0.62422   0.68618   0.00000  Uiso   1.00
C134   C     0.59044   0.62926   0.81261   0.00000  Uiso   1.00
C135   C     0.72375   0.89065   0.91203   0.00000  Uiso   1.00
O136   O     0.62491   0.91992   1.01297   0.00000  Uiso   1.00
C137   C     0.52616   0.82730   0.88257   0.00000  Uiso   1.00
C138   C     0.62264   0.76451   1.01387   0.00000  Uiso   1.00
O139   O     0.58448   0.05770   0.22466   0.00000  Uiso   1.00
C140   C     0.62529   0.07493   0.38886   0.00000  Uiso   1.00
C141   C     0.98891   0.34367   0.79318   0.00000  Uiso   1.00
C142   C     0.89484   0.25169   1.02230   0.00000  Uiso   1.00
C143   C     0.77830   0.25932   0.12699   0.00000  Uiso   1.00
C144   C     0.72218  -0.09817   0.51015   0.00000  Uiso   1.00
C145   C     0.90456   0.15113   0.27689   0.00000  Uiso   1.00
O146   O     0.73902   0.14748   0.28852   0.00000  Uiso   1.00
C147   C     0.64707  -0.14943   0.34087   0.00000  Uiso   1.00
C148   C     0.84636   0.14453   0.43854   0.00000  Uiso   1.00
C149   C     0.56985   0.03948   0.91570   0.00000  Uiso   1.00
O150   O     0.71753   0.17902   0.98081   0.00000  Uiso   1.00
O151   O     0.57288   0.18523   0.97443   0.00000  Uiso   1.00
C152   C     0.60397  -0.04094   0.69723   0.00000  Uiso   1.00
C153   C     0.72312   0.09364   0.60765   0.00000  Uiso   1.00
C154   C     0.52779   0.03747   0.56703   0.00000  Uiso   1.00
C155   C     0.61091   0.20685   0.28842   0.00000  Uiso   1.00
C156   C     0.68716   0.40470   0.02642   0.00000  Uiso   1.00
O157   O     0.79151   0.33301  -0.01938   0.00000  Uiso   1.00
C158   C     0.81534   0.48164  -0.08627   0.00000  Uiso   1.00
O159   O     0.87037   0.45888   0.06815   0.00000  Uiso   1.00
O160   O     0.52377   0.35413   0.16384   0.00000  Uiso   1.00
O161   O     0.56137   0.42942   0.30182   0.00000  Uiso   1.00
C162   C     0.80807   0.33046   0.44664   0.00000  Uiso   1.00
O163   O     0.87844   0.27157   0.34330   0.00000  Uiso   1.00
O164   O     0.96808   0.41560   0.40124   0.00000  Uiso   1.00
O165   O     0.70413   0.39952   0.55735   0.00000  Uiso   1.00
C166   C     0.70912   0.55377   0.55772   0.00000  Uiso   1.00
C167   C     0.77419   0.49099   0.70111   0.00000  Uiso   1.00
O168   O     0.83395   0.49188   0.19850   0.00000  Uiso   1.00
O169   O     0.68686   0.41116   0.23716   0.00000  Uiso   1.00
O170   O     0.82309   0.38095   0.29588   0.00000  Uiso   1.00
C171   C     0.81951   0.52455   0.34995   0.00000  Uiso   1.00
O172   O     0.63652   0.17880   0.84752   0.00000  Uiso   1.00
O173   O     0.62530   0.11389   0.71339   0.00000  Uiso   1.00
C174   C     0.78094   0.15204   0.81460   0.00000  Uiso   1.00
C175   C     1.10917   0.67647   0.81284   0.00000  Uiso   1.00
O176   O     0.98363   0.47641   0.54003   0.00000  Uiso   1.00
O177   O     0.85232   0.50510   0.56122   0.00000  Uiso   1.00
C178   C     0.72624   0.28577   0.74747   0.00000  Uiso   1.00
C179   C     0.96644   0.49429   0.69221   0.00000  Uiso   1.00
C180   C     1.01276   0.62977   0.58579   0.00000  Uiso   1.00
O181   O     0.60932   0.50202   0.18777   0.00000  Uiso   1.00
C182   C     0.74300   0.63627   0.15114   0.00000  Uiso   1.00
C183   C     0.57303   0.63794   0.15592   0.00000  Uiso   1.00
C184   C     0.69223   0.62870   0.30291   0.00000  Uiso   1.00
C185   C     0.89583   0.92888   0.25638   0.00000  Uiso   1.00
C186   C     1.03485   0.86221   0.26445   0.00000  Uiso   1.00
C187   C     1.05967   1.01237   0.35479   0.00000  Uiso   1.00
O188   O     0.56356   0.60575   0.48834   0.00000  Uiso   1.00
O189   O     0.65839   0.74204   0.45429   0.00000  Uiso   1.00
C190   C     0.52300   0.73201   0.52951   0.00000  Uiso   1.00
C191   C     0.93209   0.90232   0.53238   0.00000  Uiso   1.00
O192   O     0.95087   0.85833   0.39046   0.00000  Uiso   1.00
C193   C     0.86502   0.73587   0.48365   0.00000  Uiso   1.00
O194   O     0.79220   0.83626   0.41114   0.00000  Uiso   1.00
O195   O     0.92737   0.87050   0.87958   0.00000  Uiso   1.00
C196   C     0.67390   0.71046   0.62002   0.00000  Uiso   1.00
C197   C     0.83217   0.89941   0.74851   0.00000  Uiso   1.00
C198   C     1.02726   0.96009   0.77484   0.00000  Uiso   1.00
C199   C     0.91305   0.78582   0.73665   0.00000  Uiso   1.00
H200   H    -0.00909   0.03948  -0.01225   0.00000  Uiso   1.00
H201   H     0.07829   0.07922  -0.06469   0.00000  Uiso   1.00
H202   H     0.05488   0.14611  -0.00667   0.00000  Uiso   1.00
H203   H     0.06403   0.99951   0.17582   0.00000  Uiso   1.00
H204   H     0.04779   1.09110   0.16874   0.00000  Uiso   1.00
H205   H     0.14871   1.09093   0.21098   0.00000  Uiso   1.00
H206   H     0.23080   1.00559   0.08994   0.00000  Uiso   1.00
H207   H     0.16967   0.99735  -0.01940   0.00000  Uiso   1.00
H208   H     0.12821   0.94052   0.05971   0.00000  Uiso   1.00
H209   H     0.04259   0.23078   0.16706   0.00000  Uiso   1.00
H210   H     0.10901   0.25345   0.08982   0.00000  Uiso   1.00
H211   H     0.08181   0.32341   0.14155   0.00000  Uiso   1.00
H212   H     0.17020   0.25349   0.34796   0.00000  Uiso   1.00
H213   H     0.23808   0.21384   0.32495   0.00000  Uiso   1.00
H214   H     0.13321   0.16742   0.27686   0.00000  Uiso   1.00
H215   H     0.04838   0.16283   0.76546   0.00000  Uiso   1.00
H216   H    -0.05725   0.15074   0.79455   0.00000  Uiso   1.00
H217   H     0.03341   0.19637   0.85974   0.00000  Uiso   1.00
H218   H     0.98467   0.21077   0.60884   0.00000  Uiso   1.00
H219   H     0.96880   0.29692   0.60766   0.00000  Uiso   1.00
H220   H     0.89580   0.20603   0.64242   0.00000  Uiso   1.00
H221   H     0.05343   0.17548   0.45815   0.00000  Uiso   1.00
H222   H     0.14753   0.26453   0.46516   0.00000  Uiso   1.00
H223   H     0.06466   0.25550   0.51962   0.00000  Uiso   1.00
H224   H     0.02541   0.11579   0.63867   0.00000  Uiso   1.00
H225   H     0.11536   0.08924   0.67452   0.00000  Uiso   1.00
H226   H     0.06087   0.05564   0.58574   0.00000  Uiso   1.00
H227   H     0.22124   0.10638   0.54177   0.00000  Uiso   1.00
H228   H     0.29020   0.20842   0.56679   0.00000  Uiso   1.00
H229   H     0.22094   0.17771   0.47512   0.00000  Uiso   1.00
H230   H     0.07161   0.54707  -0.00942   0.00000  Uiso   1.00
H231   H     0.01217   0.43786  -0.03836   0.00000  Uiso   1.00
H232   H     0.06776   0.50113  -0.10301   0.00000  Uiso   1.00
H233   H     0.17567   0.38459  -0.10004   0.00000  Uiso   1.00
H234   H     0.10404   0.32604  -0.03792   0.00000  Uiso   1.00
H235   H     0.22086   0.36270  -0.01537   0.00000  Uiso   1.00
H236   H     0.21831   0.53720   0.12436   0.00000  Uiso   1.00
H237   H     0.23712   0.44740   0.13266   0.00000  Uiso   1.00
H238   H     0.13003   0.45051   0.12733   0.00000  Uiso   1.00
H239   H    -0.10072   0.63219   0.09958   0.00000  Uiso   1.00
H240   H    -0.00732   0.62087   0.07810   0.00000  Uiso   1.00
H241   H    -0.01303   0.65293   0.17580   0.00000  Uiso   1.00
H242   H     0.39946   0.68077  -0.03118   0.00000  Uiso   1.00
H243   H     0.41383   0.66188  -0.13761   0.00000  Uiso   1.00
H244   H     0.43439   0.60995  -0.04989   0.00000  Uiso   1.00
H245   H     0.07613   0.37688   0.25488   0.00000  Uiso   1.00
H246   H     0.09296   0.43842   0.33978   0.00000  Uiso   1.00
H247   H     0.08816   0.34349   0.34797   0.00000  Uiso   1.00
H248   H    -0.05014   0.41041   0.20652   0.00000  Uiso   1.00
H249   H     0.01051   0.50156   0.26903   0.00000  Uiso   1.00
H250   H     0.04168   0.48592   0.17722   0.00000  Uiso   1.00
H251   H     0.27009   0.65856   0.18942   0.00000  Uiso   1.00
H252   H     0.19955   0.69402   0.23253   0.00000  Uiso   1.00
H253   H     0.16067   0.59934   0.18090   0.00000  Uiso   1.00
H254   H     0.40877   0.68946   0.33248   0.00000  Uiso   1.00
H255   H     0.36384   0.65023   0.42526   0.00000  Uiso   1.00
H256   H     0.35580   0.72925   0.38994   0.00000  Uiso   1.00
H257   H     0.32718   0.71796   0.74437   0.00000  Uiso   1.00
H258   H     0.30443   0.80300   0.76799   0.00000  Uiso   1.00
H259   H     0.23045   0.72971   0.69539   0.00000  Uiso   1.00
H260   H     1.23879   0.78503   0.94110   0.00000  Uiso   1.00
H261   H     1.33754   0.79941   0.92633   0.00000  Uiso   1.00
H262   H     1.28075   0.71957   0.97933   0.00000  Uiso   1.00
H263   H     0.26810   0.56777   0.67563   0.00000  Uiso   1.00
H264   H     0.15138   0.53628   0.67325   0.00000  Uiso   1.00
H265   H     0.20529   0.60132   0.60376   0.00000  Uiso   1.00
H266   H     0.01891   0.64281   0.31382   0.00000  Uiso   1.00
H267   H     0.11454   0.71433   0.29873   0.00000  Uiso   1.00
H268   H     0.06260   0.72193   0.38276   0.00000  Uiso   1.00
H269   H    -0.05432   0.83512   1.09694   0.00000  Uiso   1.00
H270   H    -0.13297   0.86784   1.04506   0.00000  Uiso   1.00
H271   H    -0.01936   0.92845   1.05014   0.00000  Uiso   1.00
H272   H     0.00344   0.73413   0.91365   0.00000  Uiso   1.00
H273   H     0.03269   0.76370   1.01702   0.00000  Uiso   1.00
H274   H     0.08015   0.83548   0.95009   0.00000  Uiso   1.00
H275   H     0.82253   0.69462   0.99020   0.00000  Uiso   1.00
H276   H     0.82809   0.68904   0.88591   0.00000  Uiso   1.00
H277   H     0.77342   0.74413   0.91642   0.00000  Uiso   1.00
H278   H     0.32508   0.10018   0.20284   0.00000  Uiso   1.00
H279   H     0.29306   0.14830   0.27061   0.00000  Uiso   1.00
H280   H     0.39707   0.18925   0.24950   0.00000  Uiso   1.00
H281   H     0.10733  -0.09115   0.47447   0.00000  Uiso   1.00
H282   H     0.21156  -0.03683   0.48882   0.00000  Uiso   1.00
H283   H     0.14862  -0.01634   0.55394   0.00000  Uiso   1.00
H284   H     0.05162  -0.19686   0.60738   0.00000  Uiso   1.00
H285   H     0.10373  -0.12720   0.69372   0.00000  Uiso   1.00
H286   H     0.11918  -0.22019   0.68340   0.00000  Uiso   1.00
H287   H     0.26771   0.97754   0.70590   0.00000  Uiso   1.00
H288   H     0.33737   0.98475   0.63520   0.00000  Uiso   1.00
H289   H     0.31221   0.90750   0.70129   0.00000  Uiso   1.00
H290   H     0.34152  -0.02248   0.86214   0.00000  Uiso   1.00
H291   H     0.23181  -0.01209   0.83486   0.00000  Uiso   1.00
H292   H     0.29024  -0.02526   0.93668   0.00000  Uiso   1.00
H293   H     0.22952   0.11529   0.94292   0.00000  Uiso   1.00
H294   H     0.22644   0.13849   0.84143   0.00000  Uiso   1.00
H295   H     0.30040   0.21279   0.92238   0.00000  Uiso   1.00
H296   H     0.34582   0.41107   0.08575   0.00000  Uiso   1.00
H297   H     0.37022   0.50271   0.03305   0.00000  Uiso   1.00
H298   H     0.45876   0.48873   0.11012   0.00000  Uiso   1.00
H299   H     0.56835   0.48484   0.92400   0.00000  Uiso   1.00
H300   H     0.58414   0.51609   1.03025   0.00000  Uiso   1.00
H301   H     0.54354   0.56320   0.96136   0.00000  Uiso   1.00
H302   H     0.58232   0.35341   0.65710   0.00000  Uiso   1.00
H303   H     0.47887   0.30820   0.59202   0.00000  Uiso   1.00
H304   H     0.54102   0.41067   0.59430   0.00000  Uiso   1.00
H305   H     0.62319   0.21883   0.58432   0.00000  Uiso   1.00
H306   H     0.64441   0.23484   0.48834   0.00000  Uiso   1.00
H307   H     0.53917   0.19898   0.49876   0.00000  Uiso   1.00
H308   H     0.40514   0.38314   0.51910   0.00000  Uiso   1.00
H309   H     0.29271   0.32578   0.51431   0.00000  Uiso   1.00
H310   H     0.35808   0.39174   0.60264   0.00000  Uiso   1.00
H311   H     0.37043   0.33919   0.37942   0.00000  Uiso   1.00
H312   H     0.41183   0.26312   0.36978   0.00000  Uiso   1.00
H313   H     0.40244   0.32787   0.28639   0.00000  Uiso   1.00
H314   H     0.46912   0.11130   0.69719   0.00000  Uiso   1.00
H315   H     0.51494   0.20469   0.66214   0.00000  Uiso   1.00
H316   H     0.39782   0.14343   0.63956   0.00000  Uiso   1.00
H317   H     0.32440   0.25517   0.77557   0.00000  Uiso   1.00
H318   H     0.28347   0.17404   0.70927   0.00000  Uiso   1.00
H319   H     0.35734   0.26724   0.68552   0.00000  Uiso   1.00
H320   H     0.56611   0.32988   0.77800   0.00000  Uiso   1.00
H321   H     0.56902   0.28349   0.86040   0.00000  Uiso   1.00
H322   H     0.48898   0.32180   0.84686   0.00000  Uiso   1.00
H323   H     0.25985   0.80070   0.10281   0.00000  Uiso   1.00
H324   H     0.28581   0.88925   0.04359   0.00000  Uiso   1.00
H325   H     0.27140   0.88670   0.15122   0.00000  Uiso   1.00
H326   H     0.43805   0.80554   0.03814   0.00000  Uiso   1.00
H327   H     0.38146   0.74924   0.10818   0.00000  Uiso   1.00
H328   H     0.48855   0.79622   0.12999   0.00000  Uiso   1.00
H329   H     0.41487   0.93081   0.27062   0.00000  Uiso   1.00
H330   H     0.50647   0.90435   0.26790   0.00000  Uiso   1.00
H331   H     0.40942   0.83060   0.26579   0.00000  Uiso   1.00
H332   H     0.61460   0.88498   0.18318   0.00000  Uiso   1.00
H333   H     0.70460   0.97884   0.22251   0.00000  Uiso   1.00
H334   H     0.73159   0.90861   0.18297   0.00000  Uiso   1.00
H335   H     0.80364   1.10029   1.09722   0.00000  Uiso   1.00
H336   H     0.78272   1.05376   1.00410   0.00000  Uiso   1.00
H337   H     0.82529   1.01153   1.08356   0.00000  Uiso   1.00
H338   H     0.40524   0.53782   0.30362   0.00000  Uiso   1.00
H339   H     0.51013   0.54800   0.29781   0.00000  Uiso   1.00
H340   H     0.49075   0.62682   0.33266   0.00000  Uiso   1.00
H341   H     0.21416   0.85271   0.39673   0.00000  Uiso   1.00
H342   H     0.30581   0.83486   0.37542   0.00000  Uiso   1.00
H343   H     0.32098   0.91694   0.44323   0.00000  Uiso   1.00
H344   H     0.35388   0.74159   0.59085   0.00000  Uiso   1.00
H345   H     0.37791   0.84358   0.61043   0.00000  Uiso   1.00
H346   H     0.42517   0.81434   0.53518   0.00000  Uiso   1.00
H347   H     0.59464   0.52366   0.68991   0.00000  Uiso   1.00
H348   H     0.50159   0.50397   0.62594   0.00000  Uiso   1.00
H349   H     0.50084   0.44237   0.70503   0.00000  Uiso   1.00
H350   H     0.40893   0.58522   0.63351   0.00000  Uiso   1.00
H351   H     0.50403   0.67934   0.67282   0.00000  Uiso   1.00
H352   H     0.40662   0.64197   0.71324   0.00000  Uiso   1.00
H353   H     0.63574   0.66396   0.78017   0.00000  Uiso   1.00
H354   H     0.62321   0.59250   0.84915   0.00000  Uiso   1.00
H355   H     0.57044   0.66217   0.84559   0.00000  Uiso   1.00
H356   H     0.71798   0.84043   0.87052   0.00000  Uiso   1.00
H357   H     0.78085   0.89939   0.95891   0.00000  Uiso   1.00
H358   H     0.73589   0.94787   0.88846   0.00000  Uiso   1.00
H359   H     0.46770   0.80280   0.90986   0.00000  Uiso   1.00
H360   H     0.52228   0.78452   0.83467   0.00000  Uiso   1.00
H361   H     0.53718   0.88409   0.85400   0.00000  Uiso   1.00
H362   H     0.67063   0.78386   1.06881   0.00000  Uiso   1.00
H363   H     0.62964   0.71694   0.97906   0.00000  Uiso   1.00
H364   H     0.56349   0.73847   1.03413   0.00000  Uiso   1.00
H365   H     0.55682   0.03607   0.38669   0.00000  Uiso   1.00
H366   H     0.63934   0.11650   0.44004   0.00000  Uiso   1.00
H367   H     0.66278   0.03539   0.40703   0.00000  Uiso   1.00
H368   H     0.99043   0.33019   0.85451   0.00000  Uiso   1.00
H369   H     0.91903   0.32325   0.76123   0.00000  Uiso   1.00
H370   H     1.02726   0.40536   0.79279   0.00000  Uiso   1.00
H371   H     0.91064   0.24999   0.96224   0.00000  Uiso   1.00
H372   H     0.89677   0.19949   1.05183   0.00000  Uiso   1.00
H373   H     0.95113   0.30443   1.05215   0.00000  Uiso   1.00
H374   H     0.81929   0.31482   0.15999   0.00000  Uiso   1.00
H375   H     0.79380   0.21212   0.16116   0.00000  Uiso   1.00
H376   H     0.70996   0.24973   0.12980   0.00000  Uiso   1.00
H377   H     0.66666  -0.09756   0.53053   0.00000  Uiso   1.00
H378   H     0.75438  -0.04052   0.48894   0.00000  Uiso   1.00
H379   H     0.76362  -0.10775   0.56250   0.00000  Uiso   1.00
H380   H     0.93501   0.11676   0.31415   0.00000  Uiso   1.00
H381   H     0.95587   0.20559   0.26560   0.00000  Uiso   1.00
H382   H     0.87150   0.12064   0.22068   0.00000  Uiso   1.00
H383   H     0.60301  -0.12460   0.35947   0.00000  Uiso   1.00
H384   H     0.61435  -0.20187   0.30250   0.00000  Uiso   1.00
H385   H     0.69202  -0.10139   0.31487   0.00000  Uiso   1.00
H386   H     0.91081   0.18026   0.46805   0.00000  Uiso   1.00
H387   H     0.83222   0.08324   0.42507   0.00000  Uiso   1.00
H388   H     0.80162   0.15309   0.46834   0.00000  Uiso   1.00
H389   H     0.53332   0.00903   0.95895   0.00000  Uiso   1.00
H390   H     0.61434   0.01420   0.91387   0.00000  Uiso   1.00
H391   H     0.53048   0.03110   0.85410   0.00000  Uiso   1.00
H392   H     0.53723  -0.08597   0.67765   0.00000  Uiso   1.00
H393   H     0.61254  -0.02701   0.76454   0.00000  Uiso   1.00
H394   H     0.65412  -0.05896   0.68304   0.00000  Uiso   1.00
H395   H     0.73899   0.15839   0.59658   0.00000  Uiso   1.00
H396   H     0.71011   0.06320   0.54710   0.00000  Uiso   1.00
H397   H     0.77464   0.08401   0.64442   0.00000  Uiso   1.00
H398   H     0.54683   0.02368   0.51455   0.00000  Uiso   1.00
H399   H     0.50421   0.08580   0.56397   0.00000  Uiso   1.00
H400   H     0.47154  -0.01575   0.57315   0.00000  Uiso   1.00
H401   H     0.62357   0.24036   0.23410   0.00000  Uiso   1.00
H402   H     0.63491   0.24810   0.34385   0.00000  Uiso   1.00
H403   H     0.53875   0.18197   0.27578   0.00000  Uiso   1.00
H404   H     0.69734   0.45913   0.06655   0.00000  Uiso   1.00
H405   H     0.66269   0.34794   0.05912   0.00000  Uiso   1.00
H406   H     0.63632   0.39417  -0.02898   0.00000  Uiso   1.00
H407   H     0.88122   0.49350  -0.09539   0.00000  Uiso   1.00
H408   H     0.82025   0.54058  -0.06517   0.00000  Uiso   1.00
H409   H     0.76414   0.45909  -0.13832   0.00000  Uiso   1.00
H410   H     0.85303   0.35311   0.50364   0.00000  Uiso   1.00
H411   H     0.77459   0.26877   0.45531   0.00000  Uiso   1.00
H412   H     0.76357   0.35987   0.43563   0.00000  Uiso   1.00
H413   H     0.75466   0.60886   0.58415   0.00000  Uiso   1.00
H414   H     0.64634   0.53901   0.57775   0.00000  Uiso   1.00
H415   H     0.69541   0.55418   0.49252   0.00000  Uiso   1.00
H416   H     0.80975   0.55538   0.72284   0.00000  Uiso   1.00
H417   H     0.80606   0.45206   0.72407   0.00000  Uiso   1.00
H418   H     0.71333   0.47074   0.72145   0.00000  Uiso   1.00
H419   H     0.77101   0.51010   0.38924   0.00000  Uiso   1.00
H420   H     0.82601   0.58188   0.32542   0.00000  Uiso   1.00
H421   H     0.88235   0.53022   0.38682   0.00000  Uiso   1.00
H422   H     0.79435   0.12653   0.76339   0.00000  Uiso   1.00
H423   H     0.76714   0.10758   0.85665   0.00000  Uiso   1.00
H424   H     0.82371   0.21151   0.83394   0.00000  Uiso   1.00
H425   H     1.08681   0.64643   0.86480   0.00000  Uiso   1.00
H426   H     1.07741   0.62895   0.76673   0.00000  Uiso   1.00
H427   H     1.10076   0.73081   0.80596   0.00000  Uiso   1.00
H428   H     0.67291   0.29675   0.71250   0.00000  Uiso   1.00
H429   H     0.77234   0.29337   0.70855   0.00000  Uiso   1.00
H430   H     0.76058   0.33226   0.79375   0.00000  Uiso   1.00
H431   H     1.03543   0.49848   0.70769   0.00000  Uiso   1.00
H432   H     0.91925   0.43426   0.69322   0.00000  Uiso   1.00
H433   H     0.95538   0.53166   0.73236   0.00000  Uiso   1.00
H434   H     1.01418   0.65739   0.52602   0.00000  Uiso   1.00
H435   H     1.07740   0.63664   0.60990   0.00000  Uiso   1.00
H436   H     0.98927   0.65728   0.62800   0.00000  Uiso   1.00
H437   H     0.78569   0.60306   0.16693   0.00000  Uiso   1.00
H438   H     0.77750   0.70019   0.15389   0.00000  Uiso   1.00
H439   H     0.72527   0.62568   0.08798   0.00000  Uiso   1.00
H440   H     0.60860   0.69898   0.16837   0.00000  Uiso   1.00
H441   H     0.51097   0.61012   0.18057   0.00000  Uiso   1.00
H442   H     0.56026   0.62143   0.09335   0.00000  Uiso   1.00
H443   H     0.64257   0.65164   0.31843   0.00000  Uiso   1.00
H444   H     0.75352   0.67427   0.32105   0.00000  Uiso   1.00
H445   H     0.68497   0.57944   0.34039   0.00000  Uiso   1.00
H446   H     0.89642   0.98912   0.25445   0.00000  Uiso   1.00
H447   H     0.83671   0.89271   0.27746   0.00000  Uiso   1.00
H448   H     0.89130   0.91396   0.19356   0.00000  Uiso   1.00
H449   H     1.10131   0.87440   0.30046   0.00000  Uiso   1.00
H450   H     1.03830   0.87830   0.20454   0.00000  Uiso   1.00
H451   H     0.99502   0.79698   0.25747   0.00000  Uiso   1.00
H452   H     1.12262   1.01160   0.36744   0.00000  Uiso   1.00
H453   H     1.05124   1.03355   0.41202   0.00000  Uiso   1.00
H454   H     1.05939   1.05433   0.31424   0.00000  Uiso   1.00
H455   H     0.46790   0.67762   0.53681   0.00000  Uiso   1.00
H456   H     0.50816   0.76265   0.47865   0.00000  Uiso   1.00
H457   H     0.54708   0.77895   0.57689   0.00000  Uiso   1.00
H458   H     0.99107   0.89272   0.55271   0.00000  Uiso   1.00
H459   H     0.88751   0.88336   0.57417   0.00000  Uiso   1.00
H460   H     0.94523   0.96277   0.51650   0.00000  Uiso   1.00
H461   H     0.80219   0.70543   0.48627   0.00000  Uiso   1.00
H462   H     0.91721   0.74295   0.53532   0.00000  Uiso   1.00
H463   H     0.88266   0.70225   0.43771   0.00000  Uiso   1.00
H464   H     0.65451   0.65092   0.64623   0.00000  Uiso   1.00
H465   H     0.65598   0.74554   0.65542   0.00000  Uiso   1.00
H466   H     0.73881   0.74105   0.61527   0.00000  Uiso   1.00
H467   H     0.83390   0.94585   0.78613   0.00000  Uiso   1.00
H468   H     0.78218   0.84438   0.74891   0.00000  Uiso   1.00
H469   H     0.83854   0.91058   0.68853   0.00000  Uiso   1.00
H470   H     1.01712   1.01063   0.78638   0.00000  Uiso   1.00
H471   H     1.04103   0.96509   0.71427   0.00000  Uiso   1.00
H472   H     1.08397   0.95486   0.81437   0.00000  Uiso   1.00
H473   H     0.97278   0.77807   0.75634   0.00000  Uiso   1.00
H474   H     0.90899   0.78657   0.67442   0.00000  Uiso   1.00
H475   H     0.85959   0.73773   0.76143   0.00000  Uiso   1.00
loop_
_geom_bond_atom_site_label_1
_geom_bond_atom_site_label_2
_geom_bond_distance
_geom_bond_site_symmetry_2
_ccdc_geom_bond_type
Si1    C52     1.909   .     S
Si1    O88     1.639   .     S
Si1    C53     1.812   1_545 S
Si1    C54     1.849   1_545 S
Si2    C55     1.822   .     S
Si2    C56     1.864   .     S
Si2    O69     1.511   .     S
Si2    O90     1.561   .     S
Si3    C57     1.839   .     S
Si3    O74     1.582   .     S
Si3    C58     1.924   1_455 S
Si3    C141    1.932   1_455 S
Si4    C59     1.871   .     S
Si4    C60     1.899   .     S
Si4    C61     1.868   .     S
Si4    O75     1.607   .     S
Si5    C62     1.884   .     S
Si5    C63     1.866   .     S
Si5    C64     1.879   .     S
Si5    O66     1.603   .     S
Si6    C65     1.872   .     S
Si6    C70     1.857   .     S
Si6    O159    1.593   1_455 S
Si6    O168    1.581   1_455 S
Si7    O66     1.578   .     S
Si7    C67     1.841   .     S
Si7    O76     1.591   1_554 S
Si7    O116    1.597   1_554 S
Si8    C68     1.833   .     S
Si8    O69     1.600   .     S
Si8    O72     1.573   .     S
Si8    O105    1.612   .     S
Si9    O79     1.576   .     S
Si9    O82     1.667   .     S
Si9    O164    1.626   1_455 S
Si9    O176    1.569   1_455 S
Si10   C71     1.850   .     S
Si10   O72     1.645   .     S
Si10   C73     1.896   .     S
Si10   O83     1.628   .     S
Si11   O74     1.606   .     S
Si11   O75     1.598   .     S
Si11   O80     1.630   .     S
Si11   O114    1.603   .     S
Si12   O76     1.601   .     S
Si12   C77     1.841   .     S
Si12   C78     1.898   1_455 S
Si12   C175    1.890   1_455 S
Si13   O79     1.556   .     S
Si13   O80     1.593   .     S
Si13   C81     1.857   .     S
Si13   O107    1.589   .     S
Si14   O82     1.572   .     S
Si14   O83     1.594   .     S
Si14   C84     1.827   .     S
Si14   O127    1.599   .     S
Si15   C85     1.948   .     S
Si15   C86     1.895   .     S
Si15   C87     1.881   1_455 S
Si15   O195    1.586   1_455 S
Si16   O91     1.610   .     S
Si16   O139    1.581   .     S
Si16   O119    1.590   1_545 S
Si16   O122    1.568   1_545 S
Si17   O88     1.628   .     S
Si17   C89     1.864   .     S
Si17   O90     1.591   .     S
Si17   O98     1.575   .     S
Si18   O91     1.611   .     S
Si18   O99     1.564   .     S
Si18   O96     1.580   1_554 S
Si18   O151    1.582   1_554 S
Si19   C92     1.843   .     S
Si19   C93     1.861   .     S
Si19   C94     1.857   1_545 S
Si19   O129    1.589   1_545 S
Si20   C95     1.839   .     S
Si20   O96     1.692   .     S
Si20   C97     1.892   .     S
Si20   O110    1.646   .     S
Si21   O98     1.596   .     S
Si21   O99     1.591   .     S
Si21   O100    1.577   .     S
Si21   O160    1.586   .     S
Si22   O100    1.624   .     S
Si22   C101    1.883   .     S
Si22   C102    1.844   1_554 S
Si22   O115    1.627   1_554 S
Si23   C103    1.820   .     S
Si23   C104    1.888   .     S
Si23   O109    1.631   .     S
Si23   O165    1.606   .     S
Si24   O105    1.543   .     S
Si24   C106    1.863   .     S
Si24   O107    1.561   .     S
Si24   O124    1.574   .     S
Si25   C108    1.862   .     S
Si25   O109    1.580   .     S
Si25   O125    1.549   .     S
Si25   O161    1.667   .     S
Si26   O110    1.580   .     S
Si26   C111    1.882   .     S
Si26   C112    1.882   .     S
Si26   C113    1.892   .     S
Si27   O114    1.607   .     S
Si27   O115    1.634   .     S
Si27   O116    1.605   .     S
Si27   O131    1.595   .     S
Si28   C117    1.896   .     S
Si28   C118    1.853   .     S
Si28   O119    1.599   .     S
Si28   C120    1.908   .     S
Si29   C121    1.866   .     S
Si29   O122    1.606   .     S
Si29   C123    1.863   1_554 S
Si29   O136    1.573   1_554 S
Si30   O124    1.626   .     S
Si30   O125    1.588   .     S
Si30   C126    1.813   .     S
Si30   O188    1.580   .     S
Si31   O127    1.592   .     S
Si31   C128    1.890   .     S
Si31   O129    1.595   .     S
Si31   C130    1.851   .     S
Si32   O131    1.595   .     S
Si32   C132    1.891   .     S
Si32   C133    1.794   .     S
Si32   C134    1.830   .     S
Si33   C135    1.901   .     S
Si33   O136    1.581   .     S
Si33   C137    1.862   .     S
Si33   C138    1.891   .     S
Si34   O139    1.596   .     S
Si34   C140    1.860   .     S
Si34   O146    1.553   .     S
Si34   C155    1.901   .     S
Si35   C143    1.892   .     S
Si35   O157    1.588   .     S
Si35   C142    1.822   1_554 S
Si35   O150    1.581   1_554 S
Si36   C144    1.881   .     S
Si36   C147    1.788   .     S
Si36   O189    1.582   1_545 S
Si36   O194    1.589   1_545 S
Si37   C145    1.861   .     S
Si37   O146    1.634   .     S
Si37   C148    1.906   .     S
Si37   O163    1.602   .     S
Si38   C149    1.892   .     S
Si38   O150    1.579   .     S
Si38   O151    1.582   .     S
Si38   O172    1.574   .     S
Si39   C152    1.894   .     S
Si39   C153    1.856   .     S
Si39   C154    1.912   .     S
Si39   O173    1.578   .     S
Si40   C156    1.861   .     S
Si40   O157    1.600   .     S
Si40   C158    1.901   .     S
Si40   O159    1.610   .     S
Si41   O160    1.629   .     S
Si41   O161    1.577   .     S
Si41   O169    1.668   .     S
Si41   O181    1.538   .     S
Si42   C162    1.827   .     S
Si42   O163    1.580   .     S
Si42   O164    1.681   .     S
Si42   O170    1.603   .     S
Si43   O165    1.580   .     S
Si43   C166    1.873   .     S
Si43   C167    1.901   .     S
Si43   O177    1.618   .     S
Si44   O168    1.598   .     S
Si44   O169    1.609   .     S
Si44   O170    1.624   .     S
Si44   C171    1.882   .     S
Si45   O172    1.553   .     S
Si45   O173    1.602   .     S
Si45   C174    1.892   .     S
Si45   C178    1.964   .     S
Si46   O176    1.622   .     S
Si46   O177    1.570   .     S
Si46   C179    1.861   .     S
Si46   C180    1.817   .     S
Si47   O181    1.612   .     S
Si47   C182    1.839   .     S
Si47   C183    1.860   .     S
Si47   C184    1.824   .     S
Si48   C185    1.839   .     S
Si48   C186    1.919   .     S
Si48   C187    1.840   .     S
Si48   O192    1.597   .     S
Si49   O188    1.583   .     S
Si49   O189    1.598   .     S
Si49   C190    1.831   .     S
Si49   C196    1.928   .     S
Si50   C191    1.804   .     S
Si50   O192    1.605   .     S
Si50   C193    1.868   .     S
Si50   O194    1.594   .     S
Si51   O195    1.628   .     S
Si51   C197    1.798   .     S
Si51   C198    1.890   .     S
Si51   C199    1.855   .     S
C52    H200    1.118   .     S
C52    H201    1.064   .     S
C52    H202    1.130   .     S
C53    H203    1.123   .     S
C53    H204    1.120   .     S
C53    H205    1.071   .     S
C53    Si1     1.812   1_565 S
C54    H206    1.134   .     S
C54    H207    1.178   .     S
C54    H208    1.088   .     S
C54    Si1     1.849   1_565 S
C55    H209    1.062   .     S
C55    H210    1.132   .     S
C55    H211    1.113   .     S
C56    H212    1.100   .     S
C56    H213    1.073   .     S
C56    H214    1.109   .     S
C57    H215    1.113   .     S
C57    H216    1.127   .     S
C57    H217    1.118   .     S
C58    H218    1.047   .     S
C58    H219    1.064   .     S
C58    H220    1.144   .     S
C58    Si3     1.924   1_655 S
C59    H221    1.116   .     S
C59    H222    1.073   .     S
C59    H223    1.093   .     S
C60    H224    1.070   .     S
C60    H225    1.084   .     S
C60    H226    1.095   .     S
C61    H227    1.121   .     S
C61    H228    1.081   .     S
C61    H229    1.101   .     S
C62    H230    1.152   .     S
C62    H231    1.107   .     S
C62    H232    1.072   .     S
C63    H233    1.077   .     S
C63    H234    1.089   .     S
C63    H235    1.127   .     S
C64    H236    1.118   .     S
C64    H237    1.116   .     S
C64    H238    1.110   .     S
C65    H239    1.099   .     S
C65    H240    1.121   .     S
C65    H241    1.111   .     S
C67    H242    1.149   .     S
C67    H243    1.122   .     S
C67    H244    1.117   .     S
C68    H245    1.026   .     S
C68    H246    1.101   .     S
C68    H247    1.079   .     S
C70    H248    1.166   .     S
C70    H249    1.139   .     S
C70    H250    1.079   .     S
C71    H251    1.102   .     S
C71    H252    1.144   .     S
C71    H253    1.076   .     S
C73    H254    1.127   .     S
C73    H255    1.130   .     S
C73    H256    1.102   .     S
O76    Si7     1.591   1_556 S
C77    H257    1.108   .     S
C77    H258    1.122   .     S
C77    H259    1.120   .     S
C78    H260    1.080   .     S
C78    H261    1.111   .     S
C78    H262    1.096   .     S
C78    Si12    1.898   1_655 S
C81    H263    1.075   .     S
C81    H264    1.159   .     S
C81    H265    1.069   .     S
C84    H266    1.089   .     S
C84    H267    1.094   .     S
C84    H268    1.113   .     S
C85    H269    1.075   .     S
C85    H270    1.128   .     S
C85    H271    1.143   .     S
C86    H272    1.106   .     S
C86    H273    1.105   .     S
C86    H274    1.132   .     S
C87    H275    1.134   .     S
C87    H276    1.117   .     S
C87    H277    1.067   .     S
C87    Si15    1.881   1_655 S
C89    H278    1.126   .     S
C89    H279    1.112   .     S
C89    H280    1.067   .     S
C92    H281    1.131   .     S
C92    H282    1.076   .     S
C92    H283    1.097   .     S
C93    H284    1.117   .     S
C93    H285    1.091   .     S
C93    H286    1.096   .     S
C94    H287    1.123   .     S
C94    H288    1.102   .     S
C94    H289    1.078   .     S
C94    Si19    1.857   1_565 S
C95    H290    1.114   .     S
C95    H291    1.140   .     S
C95    H292    1.094   .     S
O96    Si18    1.580   1_556 S
C97    H293    1.118   .     S
C97    H294    1.141   .     S
C97    H295    1.130   .     S
C101   H296    1.151   .     S
C101   H297    1.121   .     S
C101   H298    1.185   .     S
C102   H299    1.138   .     S
C102   H300    1.119   .     S
C102   H301    1.075   .     S
C102   Si22    1.844   1_556 S
C103   H302    1.110   .     S
C103   H303    1.146   .     S
C103   H304    1.044   .     S
C104   H305    1.121   .     S
C104   H306    1.088   .     S
C104   H307    1.081   .     S
C106   H308    1.098   .     S
C106   H309    1.094   .     S
C106   H310    1.159   .     S
C108   H311    1.134   .     S
C108   H312    1.119   .     S
C108   H313    1.129   .     S
C111   H314    1.055   .     S
C111   H315    1.091   .     S
C111   H316    1.112   .     S
C112   H317    1.070   .     S
C112   H318    1.097   .     S
C112   H319    1.110   .     S
C113   H320    1.129   .     S
C113   H321    1.102   .     S
C113   H322    1.087   .     S
O115   Si22    1.627   1_556 S
O116   Si7     1.597   1_556 S
C117   H323    1.104   .     S
C117   H324    1.166   .     S
C117   H325    1.126   .     S
C118   H326    1.079   .     S
C118   H327    1.110   .     S
C118   H328    1.043   .     S
O119   Si16    1.590   1_565 S
C120   H329    1.091   .     S
C120   H330    1.076   .     S
C120   H331    1.060   .     S
C121   H332    1.141   .     S
C121   H333    1.132   .     S
C121   H334    1.106   .     S
O122   Si16    1.568   1_565 S
C123   H335    1.088   .     S
C123   H336    1.133   .     S
C123   H337    1.059   .     S
C123   Si29    1.863   1_556 S
C126   H338    1.120   .     S
C126   H339    1.061   .     S
C126   H340    1.042   .     S
C128   H341    1.113   .     S
C128   H342    1.159   .     S
C128   H343    1.092   .     S
O129   Si19    1.589   1_565 S
C130   H344    1.096   .     S
C130   H345    1.072   .     S
C130   H346    1.200   .     S
C132   H347    1.083   .     S
C132   H348    1.088   .     S
C132   H349    1.091   .     S
C133   H350    1.120   .     S
C133   H351    1.159   .     S
C133   H352    1.075   .     S
C134   H353    1.049   .     S
C134   H354    1.166   .     S
C134   H355    1.031   .     S
C135   H356    1.152   .     S
C135   H357    1.127   .     S
C135   H358    1.094   .     S
O136   Si29    1.573   1_556 S
C137   H359    1.121   .     S
C137   H360    1.136   .     S
C137   H361    1.127   .     S
C138   H362    1.113   .     S
C138   H363    1.134   .     S
C138   H364    1.068   .     S
C140   H365    1.119   .     S
C140   H366    1.118   .     S
C140   H367    1.164   .     S
C141   H368    1.091   .     S
C141   H369    1.155   .     S
C141   H370    1.086   .     S
C141   Si3     1.932   1_655 S
C142   H371    1.127   .     S
C142   H372    1.104   .     S
C142   H373    1.135   .     S
C142   Si35    1.822   1_556 S
C143   H374    1.102   .     S
C143   H375    1.146   .     S
C143   H376    1.134   .     S
C144   H377    1.081   .     S
C144   H378    1.097   .     S
C144   H379    1.116   .     S
C145   H380    1.114   .     S
C145   H381    1.104   .     S
C145   H382    1.085   .     S
C147   H383    1.121   .     S
C147   H384    1.088   .     S
C147   H385    1.089   .     S
C148   H386    1.091   .     S
C148   H387    1.093   .     S
C148   H388    1.060   .     S
C149   H389    1.078   .     S
C149   H390    1.049   .     S
C149   H391    1.144   .     S
O150   Si35    1.581   1_556 S
O151   Si18    1.582   1_556 S
C152   H392    1.131   .     S
C152   H393    1.173   .     S
C152   H394    1.106   .     S
C153   H395    1.153   .     S
C153   H396    1.147   .     S
C153   H397    1.077   .     S
C154   H398    1.086   .     S
C154   H399    1.120   .     S
C154   H400    1.110   .     S
C155   H401    1.132   .     S
C155   H402    1.153   .     S
C155   H403    1.132   .     S
C156   H404    1.177   .     S
C156   H405    1.160   .     S
C156   H406    1.150   .     S
C158   H407    1.112   .     S
C158   H408    1.130   .     S
C158   H409    1.109   .     S
O159   Si6     1.593   1_655 S
C162   H410    1.122   .     S
C162   H411    1.093   .     S
C162   H412    1.095   .     S
O164   Si9     1.626   1_655 S
C166   H413    1.074   .     S
C166   H414    1.127   .     S
C166   H415    1.118   .     S
C167   H416    1.152   .     S
C167   H417    1.102   .     S
C167   H418    1.091   .     S
O168   Si6     1.581   1_655 S
C171   H419    1.121   .     S
C171   H420    1.119   .     S
C171   H421    1.130   .     S
C174   H422    1.112   .     S
C174   H423    1.082   .     S
C174   H424    1.088   .     S
C175   H425    1.104   .     S
C175   H426    1.106   .     S
C175   H427    1.080   .     S
C175   Si12    1.890   1_655 S
O176   Si9     1.569   1_655 S
C178   H428    1.101   .     S
C178   H429    1.098   .     S
C178   H430    1.100   .     S
C179   H431    1.148   .     S
C179   H432    1.105   .     S
C179   H433    1.081   .     S
C180   H434    1.154   .     S
C180   H435    1.082   .     S
C180   H436    1.112   .     S
C182   H437    1.132   .     S
C182   H438    1.107   .     S
C182   H439    1.087   .     S
C183   H440    1.069   .     S
C183   H441    1.151   .     S
C183   H442    1.096   .     S
C184   H443    1.164   .     S
C184   H444    1.070   .     S
C184   H445    1.100   .     S
C185   H446    1.120   .     S
C185   H447    1.107   .     S
C185   H448    1.112   .     S
C186   H449    1.149   .     S
C186   H450    1.085   .     S
C186   H451    1.140   .     S
C187   H452    1.078   .     S
C187   H453    1.127   .     S
C187   H454    1.048   .     S
O189   Si36    1.582   1_565 S
C190   H455    1.117   .     S
C190   H456    1.094   .     S
C190   H457    1.113   .     S
C191   H458    1.100   .     S
C191   H459    1.105   .     S
C191   H460    1.103   .     S
C193   H461    1.022   .     S
C193   H462    1.128   .     S
C193   H463    1.168   .     S
O194   Si36    1.589   1_565 S
O195   Si15    1.586   1_655 S
C196   H464    1.143   .     S
C196   H465    1.064   .     S
C196   H466    1.062   .     S
C197   H467    1.080   .     S
C197   H468    1.058   .     S
C197   H469    1.076   .     S
C198   H470    1.050   .     S
C198   H471    1.113   .     S
C198   H472    1.133   .     S
C199   H473    1.094   .     S
C199   H474    1.072   .     S
C199   H475    1.154   .     S
