data_333-7-11-18-15-30-10
_audit_creation_date              2025-03-07
_audit_creation_method            'Materials Studio'
_symmetry_space_group_name_H-M    'P1'
_symmetry_Int_Tables_number       1
_symmetry_cell_setting            triclinic
loop_
_symmetry_equiv_pos_as_xyz
  x,y,z
_cell_length_a                    17.9256
_cell_length_b                    18.4347
_cell_length_c                    18.3009
_cell_angle_alpha                 88.2195
_cell_angle_beta                  91.1246
_cell_angle_gamma                 114.8422
loop_
_atom_site_label
_atom_site_type_symbol
_atom_site_fract_x
_atom_site_fract_y
_atom_site_fract_z
_atom_site_U_iso_or_equiv
_atom_site_adp_type
_atom_site_occupancy
Si1    Si    0.01193  -0.10114   0.21592   0.00000  Uiso   1.00
Si2    Si   -0.01175   0.32189   0.43640   0.00000  Uiso   1.00
Si3    Si    0.18673   0.06579   0.45406   0.00000  Uiso   1.00
Si4    Si   -0.05265   0.27344   0.74614   0.00000  Uiso   1.00
Si5    Si    0.21223   0.11558   0.70531   0.00000  Uiso   1.00
Si6    Si    0.11758   0.49876   0.20105   0.00000  Uiso   1.00
Si7    Si    0.18533   0.56327  -0.00566   0.00000  Uiso   1.00
Si8    Si    0.28876   0.41323   0.57210   0.00000  Uiso   1.00
Si9    Si    0.28016   0.49843   0.26491   0.00000  Uiso   1.00
Si10   Si    0.00959   0.54990   0.94627   0.00000  Uiso   1.00
Si11   Si    0.20357   0.65899   0.12998   0.00000  Uiso   1.00
Si12   Si   -0.00475   0.72914   0.24731   0.00000  Uiso   1.00
Si13   Si    0.16965   0.79082   0.05590   0.00000  Uiso   1.00
Si14   Si    0.16386   0.74865   0.30974   0.00000  Uiso   1.00
Si15   Si    0.14477   0.61832   0.64283   0.00000  Uiso   1.00
Si16   Si    0.13798   0.77986   0.64538   0.00000  Uiso   1.00
Si17   Si    0.43224  -0.04439   0.16542   0.00000  Uiso   1.00
Si18   Si    0.45048   0.03892   0.01641   0.00000  Uiso   1.00
Si19   Si    0.48489  -0.06967   0.42906   0.00000  Uiso   1.00
Si20   Si    0.31513   0.11554   0.57467   0.00000  Uiso   1.00
Si21   Si    0.43707  -0.03023   0.75813   0.00000  Uiso   1.00
Si22   Si    0.46104   0.07889   0.62015   0.00000  Uiso   1.00
Si23   Si    0.44005   0.58242   0.17448   0.00000  Uiso   1.00
Si24   Si    0.42592   0.57163   0.53377   0.00000  Uiso   1.00
Si25   Si    0.55363   0.57081   0.29103   0.00000  Uiso   1.00
Si26   Si    0.44056   0.42437   0.78408   0.00000  Uiso   1.00
Si27   Si    0.52710   0.54209   0.66188   0.00000  Uiso   1.00
Si28   Si    0.47371   0.71905   0.06254   0.00000  Uiso   1.00
Si29   Si    0.32592   0.78483   0.23454   0.00000  Uiso   1.00
Si30   Si    0.53129   0.67830   0.41098   0.00000  Uiso   1.00
Si31   Si    0.47722   0.79884   0.33188   0.00000  Uiso   1.00
Si32   Si    0.54239   0.68649   0.74764   0.00000  Uiso   1.00
Si33   Si    0.86247   0.30429   0.17877   0.00000  Uiso   1.00
Si34   Si    0.82096   0.07906   0.31247   0.00000  Uiso   1.00
Si35   Si    0.59243   0.09365   0.49922   0.00000  Uiso   1.00
Si36   Si    0.84252   0.24894   0.33549   0.00000  Uiso   1.00
Si37   Si    0.87314   0.10516   0.67671   0.00000  Uiso   1.00
Si38   Si    0.54636   0.01280   0.89222   0.00000  Uiso   1.00
Si39   Si    0.70017   0.08104   0.62937   0.00000  Uiso   1.00
Si40   Si    1.02645   0.33775   0.12136   0.00000  Uiso   1.00
Si41   Si    0.68157   0.51043   0.24923   0.00000  Uiso   1.00
Si42   Si    0.86032   0.55101   0.01754   0.00000  Uiso   1.00
Si43   Si    0.71107   0.25561   0.43440   0.00000  Uiso   1.00
Si44   Si    0.64590   0.47127   0.61308   0.00000  Uiso   1.00
Si45   Si    0.73106   0.41552   0.37510   0.00000  Uiso   1.00
Si46   Si    0.84446   0.61784   0.16399   0.00000  Uiso   1.00
Si47   Si    0.75638   0.72031   0.10281   0.00000  Uiso   1.00
Si48   Si    0.76955   0.53903   0.49204   0.00000  Uiso   1.00
Si49   Si    0.69727   0.78528   0.47455   0.00000  Uiso   1.00
Si50   Si    0.84767   0.69416   0.72251   0.00000  Uiso   1.00
Si51   Si    0.80456   0.78162   0.60111   0.00000  Uiso   1.00
C52    C    -0.01638  -0.05753   0.12894   0.00000  Uiso   1.00
C53    C    -0.06195  -0.10417   0.29058   0.00000  Uiso   1.00
C54    C    -0.05352   0.23411   0.50534   0.00000  Uiso   1.00
C55    C     0.01897   0.42063   0.48361   0.00000  Uiso   1.00
C56    C     1.06885   0.31393   0.37837   0.00000  Uiso   1.00
C57    C     0.15352   0.14838   0.45828   0.00000  Uiso   1.00
C58    C     0.08718   0.96924   0.44640   0.00000  Uiso   1.00
C59    C    -0.08316   0.23079   0.84439   0.00000  Uiso   1.00
C60    C     0.05718   0.34140   0.74580   0.00000  Uiso   1.00
C61    C     0.88540   0.32397   0.70856   0.00000  Uiso   1.00
C62    C     0.14654   0.00541   0.68992   0.00000  Uiso   1.00
C63    C     0.24810   0.11956   0.80259   0.00000  Uiso   1.00
C64    C     0.15302   0.17689   0.69274   0.00000  Uiso   1.00
C65    C     0.21130   0.47667   0.01229   0.00000  Uiso   1.00
C66    C     0.23312   0.60369   0.90280   0.00000  Uiso   1.00
C67    C     0.26062   0.43832   0.65634   0.00000  Uiso   1.00
C68    C     0.33910   0.34419   0.58249   0.00000  Uiso   1.00
O69    O     0.20515   0.50404   0.21988   0.00000  Uiso   1.00
C70    C     0.19742   0.35698   0.52012   0.00000  Uiso   1.00
C71    C     0.26982   0.39413   0.26096   0.00000  Uiso   1.00
C72    C     0.28398   0.52492   0.36355   0.00000  Uiso   1.00
O73    O     0.09066   0.54528   0.98777   0.00000  Uiso   1.00
C74    C     0.96282   0.45960   0.88903   0.00000  Uiso   1.00
O75    O     0.13155   0.58472   0.16766   0.00000  Uiso   1.00
O76    O     0.22816   0.62929   0.05834   0.00000  Uiso   1.00
O77    O     0.00911   0.81173   0.21092   0.00000  Uiso   1.00
C78    C     0.94259   0.71370   0.33706   0.00000  Uiso   1.00
O79    O     0.16338   0.71868   0.10779   0.00000  Uiso   1.00
C80    C     0.21043   0.87902   0.11092   0.00000  Uiso   1.00
C81    C     0.11346   0.96660   0.24548   0.00000  Uiso   1.00
C82    C     0.06459   0.77611   1.03060   0.00000  Uiso   1.00
C83    C     0.23825   0.80094   0.97480   0.00000  Uiso   1.00
O84    O     0.08666   0.72968   0.25706   0.00000  Uiso   1.00
C85    C     0.16985   0.65860   0.35524   0.00000  Uiso   1.00
C86    C     0.17090   0.81340   0.39016   0.00000  Uiso   1.00
C87    C     0.26022   1.08391   0.37622   0.00000  Uiso   1.00
C88    C     0.04832   0.64190   0.88492   0.00000  Uiso   1.00
C89    C     0.05178   0.52151   0.65650   0.00000  Uiso   1.00
C90    C     0.18927   0.61199   0.55373   0.00000  Uiso   1.00
C91    C     0.22723   0.64711   0.71370   0.00000  Uiso   1.00
C92    C     0.05740   0.79661   0.59313   0.00000  Uiso   1.00
O93    O     0.11414   0.68847   0.63309   0.00000  Uiso   1.00
C94    C     0.13711   0.79427   0.74647   0.00000  Uiso   1.00
C95    C     0.24476   0.84264   0.61518   0.00000  Uiso   1.00
C96    C     0.54236   0.99951   0.19332   0.00000  Uiso   1.00
O97    O     0.43149  -0.02776   0.07948   0.00000  Uiso   1.00
C98    C     0.54154   0.13846   0.03837   0.00000  Uiso   1.00
C99    C     0.35764   0.05286   0.98977   0.00000  Uiso   1.00
C100   C     0.39743  -0.04779   0.40357   0.00000  Uiso   1.00
C101   C     0.45638   0.87183   0.51714   0.00000  Uiso   1.00
O102   O     0.23689   0.06176   0.52703   0.00000  Uiso   1.00
C103   C     0.38714   0.20416   0.51926   0.00000  Uiso   1.00
O104   O     0.28640   0.14214   0.64824   0.00000  Uiso   1.00
C105   C     0.35103   0.98565   0.79866   0.00000  Uiso   1.00
C106   C     0.40559   0.86012   0.75235   0.00000  Uiso   1.00
O107   O     0.37011   0.06553   0.59574   0.00000  Uiso   1.00
O108   O     0.45960   0.01116   0.67707   0.00000  Uiso   1.00
C109   C     0.41500   0.50257   0.10855   0.00000  Uiso   1.00
O110   O     0.36542   0.55819   0.23259   0.00000  Uiso   1.00
O111   O     0.34666   0.49105   0.52822   0.00000  Uiso   1.00
C112   C     0.39655   0.65016   0.56037   0.00000  Uiso   1.00
O113   O     0.52170   0.58739   0.21444   0.00000  Uiso   1.00
C114   C     0.48594   0.47288   0.33826   0.00000  Uiso   1.00
C115   C     0.42668   0.31966   0.76959   0.00000  Uiso   1.00
C116   C     0.50354   0.18343   0.66304   0.00000  Uiso   1.00
C117   C     0.53130   0.47265   0.84989   0.00000  Uiso   1.00
C118   C     0.34724   0.42812   0.82836   0.00000  Uiso   1.00
O119   O     0.49237   0.55593   0.58333   0.00000  Uiso   1.00
O120   O     0.45719   0.47446   0.70903   0.00000  Uiso   1.00
O121   O     0.45242   0.66458   0.13749   0.00000  Uiso   1.00
C122   C     0.45078   0.65567  -0.02134   0.00000  Uiso   1.00
C123   C     0.41776   0.78209   0.04500   0.00000  Uiso   1.00
C124   C     0.58415   0.78517   0.06176   0.00000  Uiso   1.00
O125   O     0.28054   0.70589   0.18275   0.00000  Uiso   1.00
O126   O     0.38181   0.86082   0.18685   0.00000  Uiso   1.00
O127   O     0.25437   0.79973   0.27273   0.00000  Uiso   1.00
O128   O     0.46669   0.60567   0.45570   0.00000  Uiso   1.00
O129   O     0.56182   0.64179   0.34504   0.00000  Uiso   1.00
O130   O     0.38466   0.77021   0.29875   0.00000  Uiso   1.00
O131   O     0.48552   0.73046   0.38106   0.00000  Uiso   1.00
O132   O     0.50508   0.87946   0.37266   0.00000  Uiso   1.00
C133   C     0.54686   0.81822   0.25204   0.00000  Uiso   1.00
C134   C     0.43289   0.64856   0.76955   0.00000  Uiso   1.00
O135   O     0.56372   0.62518   0.70299   0.00000  Uiso   1.00
C136   C     0.56367   0.78053   0.69326   0.00000  Uiso   1.00
C137   C     0.60632   0.71326   0.83430   0.00000  Uiso   1.00
C138   C     0.38092   0.01183   0.20934   0.00000  Uiso   1.00
C139   C     0.78698   0.22684   0.11797   0.00000  Uiso   1.00
C140   C     0.87009   0.40585   0.15058   0.00000  Uiso   1.00
C141   C     0.71098   0.04231   0.33430   0.00000  Uiso   1.00
C142   C     0.87158   1.03287   0.37751   0.00000  Uiso   1.00
O143   O     0.55467   0.01614   0.44340   0.00000  Uiso   1.00
O144   O     0.51548   0.08829   0.54705   0.00000  Uiso   1.00
O145   O     0.91699   0.31294   0.37946   0.00000  Uiso   1.00
O146   O     0.82889   0.28246   0.25991   0.00000  Uiso   1.00
O147   O     0.85911   0.17205   0.32299   0.00000  Uiso   1.00
O148   O     0.92984   0.19372   0.69757   0.00000  Uiso   1.00
C149   C     0.84249   1.04334   0.76344   0.00000  Uiso   1.00
O150   O     0.51527   0.01140   0.81007   0.00000  Uiso   1.00
C151   C     0.57218  -0.07417   0.91035   0.00000  Uiso   1.00
C152   C     0.64473   0.10742   0.90435   0.00000  Uiso   1.00
O153   O     0.47679   0.01170   0.94235   0.00000  Uiso   1.00
C154   C     0.68329   0.14899   0.69512   0.00000  Uiso   1.00
O155   O     0.66362   0.08638   0.55053   0.00000  Uiso   1.00
O156   O     0.79333   0.09881   0.62675   0.00000  Uiso   1.00
C157   C     0.64784  -0.01913   0.66689   0.00000  Uiso   1.00
O158   O     0.94924   0.30195   0.16946   0.00000  Uiso   1.00
C159   C     1.09195   0.27764   0.13417   0.00000  Uiso   1.00
O160   O     1.07612   0.42992   0.14037   0.00000  Uiso   1.00
C161   C     0.62596   0.45314   0.16810   0.00000  Uiso   1.00
O162   O     0.63682   0.56590   0.27386   0.00000  Uiso   1.00
O163   O     0.94960   0.55267   1.00847   0.00000  Uiso   1.00
C164   C     0.99989   0.32664   0.02247   0.00000  Uiso   1.00
C165   C     0.77860   0.46189  -0.01825   0.00000  Uiso   1.00
C166   C     0.85691   0.63464   0.96405   0.00000  Uiso   1.00
O167   O     0.62732   0.17778   0.45313   0.00000  Uiso   1.00
O168   O     0.76280   0.22451   0.38529   0.00000  Uiso   1.00
C169   C     0.77749   0.30193   0.51505   0.00000  Uiso   1.00
C170   C     0.56144   0.39646   0.55479   0.00000  Uiso   1.00
C171   C     0.68095   0.40588   0.67391   0.00000  Uiso   1.00
O172   O     0.60743   0.52242   0.65454   0.00000  Uiso   1.00
C173   C     1.05325   0.46995   0.28525   0.00000  Uiso   1.00
C174   C     0.84224   0.45252   0.34786   0.00000  Uiso   1.00
O175   O     0.68192   0.44368   0.31367   0.00000  Uiso   1.00
O176   O     0.68948   0.32173   0.39269   0.00000  Uiso   1.00
O177   O     0.77256   0.56555   0.22447   0.00000  Uiso   1.00
O178   O     0.84409   0.56154   0.10097   0.00000  Uiso   1.00
O179   O     0.93393   0.65607   0.20068   0.00000  Uiso   1.00
C180   C     0.79986   0.79787   1.02564   0.00000  Uiso   1.00
O181   O     0.82174   0.68968   0.13101   0.00000  Uiso   1.00
C182   C     0.72861   0.76108   0.18668   0.00000  Uiso   1.00
C183   C     0.67096   0.63268   1.06532   0.00000  Uiso   1.00
O184   O     0.72092   0.52580   0.56485   0.00000  Uiso   1.00
O185   O     0.73407   0.45866   0.45116   0.00000  Uiso   1.00
C186   C     0.74835   0.61721   0.44185   0.00000  Uiso   1.00
C187   C     0.87569   0.56402   0.51687   0.00000  Uiso   1.00
O188   O     0.60415   0.72553   0.46770   0.00000  Uiso   1.00
C189   C     0.75125   0.79187   0.38392   0.00000  Uiso   1.00
C190   C     0.82809   1.04414   0.21703   0.00000  Uiso   1.00
C191   C     0.70541   0.88449   0.48985   0.00000  Uiso   1.00
C192   C     0.75962   0.65041   0.78452   0.00000  Uiso   1.00
C193   C     0.88763   0.61518   0.71271   0.00000  Uiso   1.00
C194   C     0.92345   0.77957   0.76868   0.00000  Uiso   1.00
C195   C     0.89683   0.84561   0.55099   0.00000  Uiso   1.00
O196   O     0.73395   0.75585   0.54139   0.00000  Uiso   1.00
O197   O     0.82092   0.71354   0.64272   0.00000  Uiso   1.00
C198   C     0.77954   0.83824   0.66932   0.00000  Uiso   1.00
C199   C     0.94020   1.06464   0.62471   0.00000  Uiso   1.00
H200   H    -0.02200  -0.09879   0.08385   0.00000  Uiso   1.00
H201   H     0.02894   0.00573   0.11193   0.00000  Uiso   1.00
H202   H    -0.07470  -0.04526   0.13874   0.00000  Uiso   1.00
H203   H    -0.11342  -0.16036   0.28381   0.00000  Uiso   1.00
H204   H    -0.08662  -0.06148   0.28132   0.00000  Uiso   1.00
H205   H    -0.04142  -0.10895   0.34846   0.00000  Uiso   1.00
H206   H    -0.11829   0.21612   0.50194   0.00000  Uiso   1.00
H207   H    -0.02524   0.26478   0.55990   0.00000  Uiso   1.00
H208   H    -0.03715   0.18866   0.48998   0.00000  Uiso   1.00
H209   H    -0.01236   0.45357   0.45772   0.00000  Uiso   1.00
H210   H     0.08685   0.45454   0.47665   0.00000  Uiso   1.00
H211   H     0.00535   0.40950   0.54072   0.00000  Uiso   1.00
H212   H     1.08582   0.26423   0.40139   0.00000  Uiso   1.00
H213   H     1.12503   0.37333   0.37446   0.00000  Uiso   1.00
H214   H     1.04520   0.29766   0.32345   0.00000  Uiso   1.00
H215   H     0.08453   0.12391   0.45665   0.00000  Uiso   1.00
H216   H     0.19011   0.19853   0.41746   0.00000  Uiso   1.00
H217   H     0.16965   0.16885   0.51559   0.00000  Uiso   1.00
H218   H     0.03720   0.98174   0.42595   0.00000  Uiso   1.00
H219   H     0.07696   0.94264   0.50323   0.00000  Uiso   1.00
H220   H     0.09441   0.92687   0.40930   0.00000  Uiso   1.00
H221   H    -0.03232   0.22229   0.87352   0.00000  Uiso   1.00
H222   H    -0.14183   0.17796   0.85119   0.00000  Uiso   1.00
H223   H    -0.09356   0.27567   0.87785   0.00000  Uiso   1.00
H224   H     0.08475   0.31975   0.78886   0.00000  Uiso   1.00
H225   H     0.06019   0.39849   0.75694   0.00000  Uiso   1.00
H226   H     0.08537   0.34250   0.69087   0.00000  Uiso   1.00
H227   H     0.82808   0.30535   0.74336   0.00000  Uiso   1.00
H228   H     0.87250   0.30818   0.64931   0.00000  Uiso   1.00
H229   H     0.92394   0.38843   0.70627   0.00000  Uiso   1.00
H230   H     0.18587  -0.02915   0.68507   0.00000  Uiso   1.00
H231   H     0.10320  -0.00116   0.64169   0.00000  Uiso   1.00
H232   H     0.10828  -0.02026   0.73968   0.00000  Uiso   1.00
H233   H     0.22826   0.15563   0.83844   0.00000  Uiso   1.00
H234   H     0.31541   0.13708   0.81230   0.00000  Uiso   1.00
H235   H     0.21984   0.05969   0.82844   0.00000  Uiso   1.00
H236   H     0.14376   0.18993   0.63322   0.00000  Uiso   1.00
H237   H     0.18143   0.23452   0.72204   0.00000  Uiso   1.00
H238   H     0.09145   0.13965   0.71380   0.00000  Uiso   1.00
H239   H     0.21023   0.46453   0.07446   0.00000  Uiso   1.00
H240   H     0.27296   0.49262  -0.00689   0.00000  Uiso   1.00
H241   H     0.17360   0.42007  -0.01898   0.00000  Uiso   1.00
H242   H     0.20754   0.64441   0.88043   0.00000  Uiso   1.00
H243   H     0.21854   0.54952   0.86858   0.00000  Uiso   1.00
H244   H     0.30030   0.64066   0.90264   0.00000  Uiso   1.00
H245   H     0.22840   0.38546   0.69254   0.00000  Uiso   1.00
H246   H     0.21736   0.46278   0.64693   0.00000  Uiso   1.00
H247   H     0.31825   0.48047   0.68465   0.00000  Uiso   1.00
H248   H     0.37114   0.34385   0.53022   0.00000  Uiso   1.00
H249   H     0.30051   0.28026   0.59933   0.00000  Uiso   1.00
H250   H     0.38641   0.37158   0.62091   0.00000  Uiso   1.00
H251   H     0.16839   0.39892   0.51503   0.00000  Uiso   1.00
H252   H     0.15688   0.30033   0.55192   0.00000  Uiso   1.00
H253   H     0.20973   0.34468   0.46124   0.00000  Uiso   1.00
H254   H     0.20695   0.35491   0.25642   0.00000  Uiso   1.00
H255   H     0.29292   0.37199   0.30694   0.00000  Uiso   1.00
H256   H     0.30311   0.38808   0.21459   0.00000  Uiso   1.00
H257   H     0.21949   0.51068   0.38203   0.00000  Uiso   1.00
H258   H     0.31257   0.58977   0.36383   0.00000  Uiso   1.00
H259   H     0.31411   0.50049   0.40260   0.00000  Uiso   1.00
H260   H     1.01087   0.43766   0.86697   0.00000  Uiso   1.00
H261   H     0.93145   0.47087   0.83905   0.00000  Uiso   1.00
H262   H     0.91624   0.40867   0.92301   0.00000  Uiso   1.00
H263   H     0.87555   0.70700   0.33092   0.00000  Uiso   1.00
H264   H     0.97497   0.76977   0.36796   0.00000  Uiso   1.00
H265   H     0.94979   0.66082   0.36413   0.00000  Uiso   1.00
H266   H     0.18376   0.91912   0.08480   0.00000  Uiso   1.00
H267   H     0.27446   0.90073   0.10880   0.00000  Uiso   1.00
H268   H     0.18683   0.86648   0.16736   0.00000  Uiso   1.00
H269   H     0.14250   0.93741   0.27937   0.00000  Uiso   1.00
H270   H     0.11064   1.01959   0.27534   0.00000  Uiso   1.00
H271   H     0.15654   0.99712   0.20164   0.00000  Uiso   1.00
H272   H     0.03228   0.71734   1.01045   0.00000  Uiso   1.00
H273   H     0.06828   0.81382   0.98423   0.00000  Uiso   1.00
H274   H     0.02592   0.77414   1.07695   0.00000  Uiso   1.00
H275   H     0.21401   0.82250   0.92807   0.00000  Uiso   1.00
H276   H     0.25265   0.74764   0.96133   0.00000  Uiso   1.00
H277   H     0.30277   0.84336   0.99287   0.00000  Uiso   1.00
H278   H     0.22225   0.68408   0.39892   0.00000  Uiso   1.00
H279   H     0.18409   0.62354   0.31230   0.00000  Uiso   1.00
H280   H     0.10564   0.61547   0.37258   0.00000  Uiso   1.00
H281   H     0.11785   0.80156   0.41837   0.00000  Uiso   1.00
H282   H     0.19018   0.87444   0.36673   0.00000  Uiso   1.00
H283   H     0.21313   0.81337   0.43222   0.00000  Uiso   1.00
H284   H     0.23727   1.02842   0.34476   0.00000  Uiso   1.00
H285   H     0.32855   1.10534   0.39619   0.00000  Uiso   1.00
H286   H     0.26106   1.13569   0.34100   0.00000  Uiso   1.00
H287   H     0.09346   0.69255   0.91588   0.00000  Uiso   1.00
H288   H     0.00656   0.66276   0.85848   0.00000  Uiso   1.00
H289   H     0.07880   0.62515   0.84027   0.00000  Uiso   1.00
H290   H     0.02539   0.50628   0.71048   0.00000  Uiso   1.00
H291   H     0.06743   0.47094   0.64377   0.00000  Uiso   1.00
H292   H     0.00249   0.52142   0.62059   0.00000  Uiso   1.00
H293   H     0.20764   0.55918   0.55449   0.00000  Uiso   1.00
H294   H     0.24780   0.66841   0.54808   0.00000  Uiso   1.00
H295   H     0.13984   0.61187   0.51412   0.00000  Uiso   1.00
H296   H     0.28953   0.68861   0.69657   0.00000  Uiso   1.00
H297   H     0.23539   0.59374   0.73666   0.00000  Uiso   1.00
H298   H     0.20743   0.67381   0.75943   0.00000  Uiso   1.00
H299   H     0.07991   0.81251   0.53775   0.00000  Uiso   1.00
H300   H     0.05773   0.85114   0.61518   0.00000  Uiso   1.00
H301   H    -0.00277   0.75388   0.59403   0.00000  Uiso   1.00
H302   H     0.14508   0.85389   0.75870   0.00000  Uiso   1.00
H303   H     0.18918   0.78718   0.77674   0.00000  Uiso   1.00
H304   H     0.07259   0.75041   0.76458   0.00000  Uiso   1.00
H305   H     0.28454   0.81554   0.64403   0.00000  Uiso   1.00
H306   H     0.25846   0.90293   0.63007   0.00000  Uiso   1.00
H307   H     0.24319   0.84069   0.55607   0.00000  Uiso   1.00
H308   H     0.57267   0.96926   0.16427   0.00000  Uiso   1.00
H309   H     0.55291   0.98948   0.25291   0.00000  Uiso   1.00
H310   H     0.57485   1.06190   0.17608   0.00000  Uiso   1.00
H311   H     0.53421   0.16570   0.09032   0.00000  Uiso   1.00
H312   H     0.55460   0.17918  -0.01005   0.00000  Uiso   1.00
H313   H     0.59634   0.12138   0.05310   0.00000  Uiso   1.00
H314   H     0.37120   0.08140   0.93539   0.00000  Uiso   1.00
H315   H     0.35730   0.09659   1.03179   0.00000  Uiso   1.00
H316   H     0.29686  -0.00228   0.99077   0.00000  Uiso   1.00
H317   H     0.41294   0.00066   0.36079   0.00000  Uiso   1.00
H318   H     0.36945  -0.03605   0.45452   0.00000  Uiso   1.00
H319   H     0.34971  -0.10094   0.37967   0.00000  Uiso   1.00
H320   H     0.41842   0.89416   0.55239   0.00000  Uiso   1.00
H321   H     0.51596   0.87617   0.54335   0.00000  Uiso   1.00
H322   H     0.41602   0.80668   0.50405   0.00000  Uiso   1.00
H323   H     0.42924   0.18460   0.49062   0.00000  Uiso   1.00
H324   H     0.42125   0.25158   0.56045   0.00000  Uiso   1.00
H325   H     0.35035   0.21639   0.47928   0.00000  Uiso   1.00
H326   H     0.33176   0.94804   0.84798   0.00000  Uiso   1.00
H327   H     0.29769   0.96278   0.76085   0.00000  Uiso   1.00
H328   H     0.36848   1.04891   0.81745   0.00000  Uiso   1.00
H329   H     0.41923   0.84652   0.69528   0.00000  Uiso   1.00
H330   H     0.34107   0.83359   0.77688   0.00000  Uiso   1.00
H331   H     0.44666   0.85196   0.79245   0.00000  Uiso   1.00
H332   H     0.45518   0.52904   0.05601   0.00000  Uiso   1.00
H333   H     0.34907   0.47837   0.09179   0.00000  Uiso   1.00
H334   H     0.43641   0.46029   0.13470   0.00000  Uiso   1.00
H335   H     0.45073   0.70392   0.57444   0.00000  Uiso   1.00
H336   H     0.35085   0.62953   0.60384   0.00000  Uiso   1.00
H337   H     0.36965   0.66414   0.51461   0.00000  Uiso   1.00
H338   H     0.42787   0.47224   0.35497   0.00000  Uiso   1.00
H339   H     0.51964   0.46148   0.38792   0.00000  Uiso   1.00
H340   H     0.47134   0.42574   0.30022   0.00000  Uiso   1.00
H341   H     0.43009   0.29072   0.81903   0.00000  Uiso   1.00
H342   H     0.47693   0.32240   0.73021   0.00000  Uiso   1.00
H343   H     0.37002   0.28551   0.74166   0.00000  Uiso   1.00
H344   H     0.53758   0.22736   0.61750   0.00000  Uiso   1.00
H345   H     0.54405   0.19907   0.71201   0.00000  Uiso   1.00
H346   H     0.45245   0.20093   0.67590   0.00000  Uiso   1.00
H347   H     0.51692   0.42314   0.89356   0.00000  Uiso   1.00
H348   H     0.53075   0.52752   0.87113   0.00000  Uiso   1.00
H349   H     0.59154   0.48124   0.82812   0.00000  Uiso   1.00
H350   H     0.35869   0.42635   0.88419   0.00000  Uiso   1.00
H351   H     0.28975   0.38157   0.80846   0.00000  Uiso   1.00
H352   H     0.34616   0.48932   0.82110   0.00000  Uiso   1.00
H353   H     0.44641   0.68993  -0.06541   0.00000  Uiso   1.00
H354   H     0.39126   0.61229  -0.00670   0.00000  Uiso   1.00
H355   H     0.49040   0.62459  -0.02632   0.00000  Uiso   1.00
H356   H     0.35830   0.75200   0.07139   0.00000  Uiso   1.00
H357   H     0.40436   0.78614  -0.01216   0.00000  Uiso   1.00
H358   H     0.45404   0.84627   0.06850   0.00000  Uiso   1.00
H359   H     0.60613   0.80088   0.00181   0.00000  Uiso   1.00
H360   H     0.61618   0.75832   0.09491   0.00000  Uiso   1.00
H361   H     0.59753   0.83515   0.09341   0.00000  Uiso   1.00
H362   H     0.52063   0.84281   0.20694   0.00000  Uiso   1.00
H363   H     0.55110   0.76011   0.23727   0.00000  Uiso   1.00
H364   H     0.60709   0.85995   0.27448   0.00000  Uiso   1.00
H365   H     0.38995   0.60787   0.72732   0.00000  Uiso   1.00
H366   H     0.42091   0.70101   0.78425   0.00000  Uiso   1.00
H367   H     0.42966   0.61293   0.82002   0.00000  Uiso   1.00
H368   H     0.59067   0.76924   0.64703   0.00000  Uiso   1.00
H369   H     0.60670   0.82894   0.72631   0.00000  Uiso   1.00
H370   H     0.50840   0.79114   0.68308   0.00000  Uiso   1.00
H371   H     0.66846   0.75676   0.82748   0.00000  Uiso   1.00
H372   H     0.61006   0.66412   0.86122   0.00000  Uiso   1.00
H373   H     0.57680   0.73430   0.87721   0.00000  Uiso   1.00
H374   H     0.34544   0.03379   0.16901   0.00000  Uiso   1.00
H375   H     0.43009   0.06294   0.23867   0.00000  Uiso   1.00
H376   H     0.33117  -0.03325   0.24184   0.00000  Uiso   1.00
H377   H     0.80483   0.25207   0.06031   0.00000  Uiso   1.00
H378   H     0.72341   0.21636   0.13561   0.00000  Uiso   1.00
H379   H     0.78583   0.16767   0.12998   0.00000  Uiso   1.00
H380   H     0.80812   0.40761   0.14406   0.00000  Uiso   1.00
H381   H     0.89583   0.42342   0.09797   0.00000  Uiso   1.00
H382   H     0.90388   0.45254   0.18825   0.00000  Uiso   1.00
H383   H     0.67575  -0.01959   0.31456   0.00000  Uiso   1.00
H384   H     0.68072   0.07770   0.30359   0.00000  Uiso   1.00
H385   H     0.71087   0.04081   0.39235   0.00000  Uiso   1.00
H386   H     0.88332   1.05785   0.42857   0.00000  Uiso   1.00
H387   H     0.93231   1.05379   0.34967   0.00000  Uiso   1.00
H388   H     0.84105   0.96755   0.37993   0.00000  Uiso   1.00
H389   H     0.81475   0.97986   0.75333   0.00000  Uiso   1.00
H390   H     0.79361   1.05665   0.79282   0.00000  Uiso   1.00
H391   H     0.89524   1.05332   0.80472   0.00000  Uiso   1.00
H392   H     0.59764  -0.06920   0.96491   0.00000  Uiso   1.00
H393   H     0.60919  -0.08884   0.86846   0.00000  Uiso   1.00
H394   H     0.51371  -0.12810   0.91834   0.00000  Uiso   1.00
H395   H     0.62213   0.15302   0.89498   0.00000  Uiso   1.00
H396   H     0.68403   0.11185   0.86068   0.00000  Uiso   1.00
H397   H     0.67476   0.11064   0.95823   0.00000  Uiso   1.00
H398   H     0.73210   0.16450   0.73722   0.00000  Uiso   1.00
H399   H     0.62062   0.11716   0.72533   0.00000  Uiso   1.00
H400   H     0.68264   0.20227   0.66534   0.00000  Uiso   1.00
H401   H     0.68357  -0.05390   0.65116   0.00000  Uiso   1.00
H402   H     0.58400  -0.04686   0.64680   0.00000  Uiso   1.00
H403   H     0.64583  -0.01276   0.72910   0.00000  Uiso   1.00
H404   H     1.05390   0.22131   0.10827   0.00000  Uiso   1.00
H405   H     1.09542   0.26401   0.19439   0.00000  Uiso   1.00
H406   H     1.15462   0.30961   0.11010   0.00000  Uiso   1.00
H407   H     0.66391   0.48191   0.12069   0.00000  Uiso   1.00
H408   H     0.56183   0.44949   0.16533   0.00000  Uiso   1.00
H409   H     0.61977   0.39069   0.17865   0.00000  Uiso   1.00
H410   H     0.94937   0.27058   0.00492   0.00000  Uiso   1.00
H411   H     1.05785   0.32918  -0.00786   0.00000  Uiso   1.00
H412   H     0.98870   0.37692   0.00565   0.00000  Uiso   1.00
H413   H     0.72264   0.45725   0.00648   0.00000  Uiso   1.00
H414   H     0.78632   0.40664  -0.00497   0.00000  Uiso   1.00
H415   H     0.77912   0.46854  -0.08164   0.00000  Uiso   1.00
H416   H     0.87324   0.63481   0.90826   0.00000  Uiso   1.00
H417   H     0.90336   0.69514   0.98390   0.00000  Uiso   1.00
H418   H     0.79756   0.64026   0.96952   0.00000  Uiso   1.00
H419   H     0.77743   0.25290   0.55301   0.00000  Uiso   1.00
H420   H     0.74668   0.33348   0.54214   0.00000  Uiso   1.00
H421   H     0.83786   0.34893   0.49297   0.00000  Uiso   1.00
H422   H     0.52941   0.42464   0.52444   0.00000  Uiso   1.00
H423   H     0.51587   0.35006   0.59124   0.00000  Uiso   1.00
H424   H     0.58321   0.36037   0.52084   0.00000  Uiso   1.00
H425   H     0.72858   0.43012   0.71606   0.00000  Uiso   1.00
H426   H     0.69062   0.36005   0.64105   0.00000  Uiso   1.00
H427   H     0.62246   0.36215   0.69842   0.00000  Uiso   1.00
H428   H     1.09006   0.48484   0.33325   0.00000  Uiso   1.00
H429   H     1.02588   0.40461   0.28789   0.00000  Uiso   1.00
H430   H     1.00487   0.49251   0.28229   0.00000  Uiso   1.00
H431   H     0.87191   0.43562   0.39436   0.00000  Uiso   1.00
H432   H     0.85776   0.51511   0.33628   0.00000  Uiso   1.00
H433   H     0.84553   0.42958   0.29600   0.00000  Uiso   1.00
H434   H     0.83006   0.77914   0.98123   0.00000  Uiso   1.00
H435   H     0.83917   0.84812   1.05790   0.00000  Uiso   1.00
H436   H     0.74973   0.81021   0.99684   0.00000  Uiso   1.00
H437   H     0.65993   0.72530   0.19935   0.00000  Uiso   1.00
H438   H     0.75375   0.82908   0.18060   0.00000  Uiso   1.00
H439   H     0.76329   0.74941   0.23322   0.00000  Uiso   1.00
H440   H     0.62067   0.59102   1.10239   0.00000  Uiso   1.00
H441   H     0.69994   0.59771   1.03838   0.00000  Uiso   1.00
H442   H     0.63922   0.65111   1.02018   0.00000  Uiso   1.00
H443   H     0.79455   0.67786   0.46066   0.00000  Uiso   1.00
H444   H     0.68194   0.60486   0.45136   0.00000  Uiso   1.00
H445   H     0.75760   0.61319   0.38282   0.00000  Uiso   1.00
H446   H     0.91001   0.57386   0.46637   0.00000  Uiso   1.00
H447   H     0.88380   0.51461   0.55110   0.00000  Uiso   1.00
H448   H     0.90545   0.62713   0.53558   0.00000  Uiso   1.00
H449   H     0.73392   0.82635   0.34638   0.00000  Uiso   1.00
H450   H     0.72900   0.73460   0.36097   0.00000  Uiso   1.00
H451   H     0.81735   0.82075   0.39902   0.00000  Uiso   1.00
H452   H     0.79657   1.06842   0.17611   0.00000  Uiso   1.00
H453   H     0.80286   0.97920   0.21796   0.00000  Uiso   1.00
H454   H     0.89067   1.07309   0.19604   0.00000  Uiso   1.00
H455   H     0.76964   0.92817   0.50041   0.00000  Uiso   1.00
H456   H     0.66455   0.88013   0.53459   0.00000  Uiso   1.00
H457   H     0.67786   0.90246   0.43838   0.00000  Uiso   1.00
H458   H     0.75904   0.69784   0.81374   0.00000  Uiso   1.00
H459   H     0.76142   0.60216   0.82200   0.00000  Uiso   1.00
H460   H     0.70205   0.62523   0.75362   0.00000  Uiso   1.00
H461   H     0.94061   0.63373   0.67660   0.00000  Uiso   1.00
H462   H     0.83635   0.56466   0.68369   0.00000  Uiso   1.00
H463   H     0.89943   0.58757   0.76298   0.00000  Uiso   1.00
H464   H     0.90535   0.82830   0.76972   0.00000  Uiso   1.00
H465   H     0.98174   0.80849   0.73621   0.00000  Uiso   1.00
H466   H     0.93769   0.76414   0.82574   0.00000  Uiso   1.00
H467   H     0.88457   0.88752   0.51024   0.00000  Uiso   1.00
H468   H     0.91482   0.80533   0.51699   0.00000  Uiso   1.00
H469   H     0.94689   0.87586   0.58932   0.00000  Uiso   1.00
H470   H     0.72643   0.79230   0.70133   0.00000  Uiso   1.00
H471   H     0.76340   0.88376   0.64400   0.00000  Uiso   1.00
H472   H     0.83403   0.87247   0.70588   0.00000  Uiso   1.00
H473   H     0.97170   1.03634   0.66599   0.00000  Uiso   1.00
H474   H     0.98290   1.10995   0.58738   0.00000  Uiso   1.00
H475   H     0.89741   1.01641   0.59511   0.00000  Uiso   1.00
loop_
_geom_bond_atom_site_label_1
_geom_bond_atom_site_label_2
_geom_bond_distance
_geom_bond_site_symmetry_2
_ccdc_geom_bond_type
Si1    C52     1.915   .     S
Si1    C53     1.905   .     S
Si1    O77     1.591   1_545 S
Si1    C81     1.805   1_545 S
Si2    C54     1.914   .     S
Si2    C55     1.897   .     S
Si2    C56     1.867   1_455 S
Si2    O145    1.589   1_455 S
Si3    C57     1.857   .     S
Si3    O102    1.613   .     S
Si3    C58     1.926   1_545 S
Si3    C87     1.884   1_545 S
Si4    C59     1.934   .     S
Si4    C60     1.837   .     S
Si4    C61     1.837   1_455 S
Si4    O148    1.653   1_455 S
Si5    C62     1.898   .     S
Si5    C63     1.874   .     S
Si5    C64     1.855   .     S
Si5    O104    1.604   .     S
Si6    O69     1.564   .     S
Si6    O75     1.600   .     S
Si6    O160    1.631   1_455 S
Si6    C173    1.868   1_455 S
Si7    C65     1.860   .     S
Si7    O76     1.646   .     S
Si7    C66     1.881   1_554 S
Si7    O73     1.589   1_554 S
Si8    C67     1.765   .     S
Si8    C68     1.848   .     S
Si8    C70     1.798   .     S
Si8    O111    1.578   .     S
Si9    O69     1.602   .     S
Si9    C71     1.856   .     S
Si9    C72     1.877   .     S
Si9    O110    1.575   .     S
Si10   O73     1.659   .     S
Si10   C88     1.882   .     S
Si10   C74     1.863   1_455 S
Si10   O163    1.598   1_455 S
Si11   O75     1.584   .     S
Si11   O76     1.576   .     S
Si11   O79     1.588   .     S
Si11   O125    1.607   .     S
Si12   O77     1.565   .     S
Si12   O84     1.641   .     S
Si12   C78     1.865   1_455 S
Si12   O179    1.594   1_455 S
Si13   O79     1.576   .     S
Si13   C80     1.807   .     S
Si13   C82     1.838   1_554 S
Si13   C83     1.900   1_554 S
Si14   O84     1.590   .     S
Si14   C85     1.876   .     S
Si14   C86     1.893   .     S
Si14   O127    1.642   .     S
Si15   C89     1.875   .     S
Si15   C90     1.857   .     S
Si15   C91     1.859   .     S
Si15   O93     1.607   .     S
Si16   C92     1.843   .     S
Si16   O93     1.577   .     S
Si16   C94     1.879   .     S
Si16   C95     1.857   .     S
Si17   O97     1.594   .     S
Si17   C138    1.857   .     S
Si17   C96     1.859   1_545 S
Si17   O126    1.634   1_545 S
Si18   O97     1.592   .     S
Si18   C98     1.923   .     S
Si18   C99     1.842   1_554 S
Si18   O153    1.605   1_554 S
Si19   C100    1.825   .     S
Si19   O143    1.577   .     S
Si19   C101    1.866   1_545 S
Si19   O132    1.561   1_545 S
Si20   O102    1.596   .     S
Si20   C103    1.881   .     S
Si20   O104    1.612   .     S
Si20   O107    1.642   .     S
Si21   O108    1.625   .     S
Si21   O150    1.596   .     S
Si21   C105    1.858   1_545 S
Si21   C106    1.862   1_545 S
Si22   O107    1.599   .     S
Si22   O108    1.593   .     S
Si22   C116    1.936   .     S
Si22   O144    1.633   .     S
Si23   C109    1.833   .     S
Si23   O110    1.626   .     S
Si23   O113    1.592   .     S
Si23   O121    1.569   .     S
Si24   O111    1.570   .     S
Si24   C112    1.818   .     S
Si24   O119    1.599   .     S
Si24   O128    1.603   .     S
Si25   O113    1.573   .     S
Si25   C114    1.893   .     S
Si25   O129    1.620   .     S
Si25   O162    1.570   .     S
Si26   C115    1.867   .     S
Si26   C117    1.913   .     S
Si26   C118    1.901   .     S
Si26   O120    1.592   .     S
Si27   O119    1.611   .     S
Si27   O120    1.591   .     S
Si27   O135    1.597   .     S
Si27   O172    1.635   .     S
Si28   O121    1.627   .     S
Si28   C122    1.891   .     S
Si28   C123    1.844   .     S
Si28   C124    1.838   .     S
Si29   O125    1.655   .     S
Si29   O126    1.583   .     S
Si29   O127    1.598   .     S
Si29   O130    1.653   .     S
Si30   O128    1.572   .     S
Si30   O129    1.611   .     S
Si30   O131    1.584   .     S
Si30   O188    1.609   .     S
Si31   O130    1.626   .     S
Si31   O131    1.582   .     S
Si31   O132    1.564   .     S
Si31   C133    1.867   .     S
Si32   C134    1.834   .     S
Si32   O135    1.589   .     S
Si32   C136    1.869   .     S
Si32   C137    1.891   .     S
Si33   C139    1.877   .     S
Si33   C140    1.875   .     S
Si33   O146    1.589   .     S
Si33   O158    1.587   .     S
Si34   C141    1.843   .     S
Si34   O147    1.573   .     S
Si34   C142    1.873   1_545 S
Si34   C190    1.905   1_545 S
Si35   O143    1.672   .     S
Si35   O144    1.614   .     S
Si35   O155    1.618   .     S
Si35   O167    1.622   .     S
Si36   O145    1.586   .     S
Si36   O146    1.554   .     S
Si36   O147    1.590   .     S
Si36   O168    1.600   .     S
Si37   O148    1.573   .     S
Si37   O156    1.647   .     S
Si37   C149    1.875   1_545 S
Si37   C199    1.937   1_545 S
Si38   O150    1.590   .     S
Si38   C151    1.865   .     S
Si38   C152    1.904   .     S
Si38   O153    1.556   .     S
Si39   C154    1.880   .     S
Si39   O155    1.590   .     S
Si39   O156    1.562   .     S
Si39   C157    1.803   .     S
Si40   O158    1.539   .     S
Si40   C159    1.931   .     S
Si40   O160    1.598   .     S
Si40   C164    1.858   .     S
Si41   C161    1.862   .     S
Si41   O162    1.620   .     S
Si41   O175    1.680   .     S
Si41   O177    1.583   .     S
Si42   C165    1.811   .     S
Si42   O178    1.593   .     S
Si42   O163    1.600   1_554 S
Si42   C166    1.823   1_554 S
Si43   O167    1.615   .     S
Si43   O168    1.584   .     S
Si43   C169    1.866   .     S
Si43   O176    1.595   .     S
Si44   C170    1.899   .     S
Si44   C171    1.901   .     S
Si44   O172    1.597   .     S
Si44   O184    1.566   .     S
Si45   C174    1.887   .     S
Si45   O175    1.618   .     S
Si45   O176    1.594   .     S
Si45   O185    1.613   .     S
Si46   O177    1.662   .     S
Si46   O178    1.573   .     S
Si46   O179    1.599   .     S
Si46   O181    1.636   .     S
Si47   O181    1.572   .     S
Si47   C182    1.893   .     S
Si47   C180    1.905   1_554 S
Si47   C183    1.837   1_554 S
Si48   O184    1.563   .     S
Si48   O185    1.555   .     S
Si48   C186    1.852   .     S
Si48   C187    1.811   .     S
Si49   O188    1.572   .     S
Si49   C189    1.911   .     S
Si49   C191    1.803   .     S
Si49   O196    1.565   .     S
Si50   C192    1.837   .     S
Si50   C193    1.888   .     S
Si50   C194    1.811   .     S
Si50   O197    1.604   .     S
Si51   C195    1.822   .     S
Si51   O196    1.580   .     S
Si51   O197    1.576   .     S
Si51   C198    1.829   .     S
C52    H200    1.114   .     S
C52    H201    1.144   .     S
C52    H202    1.177   .     S
C53    H203    1.068   .     S
C53    H204    1.061   .     S
C53    H205    1.127   .     S
C54    H206    1.066   .     S
C54    H207    1.161   .     S
C54    H208    1.045   .     S
C55    H209    1.080   .     S
C55    H210    1.118   .     S
C55    H211    1.072   .     S
C56    H212    1.147   .     S
C56    H213    1.136   .     S
C56    H214    1.084   .     S
C56    Si2     1.867   1_655 S
C57    H215    1.124   .     S
C57    H216    1.145   .     S
C57    H217    1.117   .     S
C58    H218    1.073   .     S
C58    H219    1.121   .     S
C58    H220    1.100   .     S
C58    Si3     1.926   1_565 S
C59    H221    1.111   .     S
C59    H222    1.099   .     S
C59    H223    1.122   .     S
C60    H224    1.075   .     S
C60    H225    1.057   .     S
C60    H226    1.130   .     S
C61    H227    1.138   .     S
C61    H228    1.126   .     S
C61    H229    1.095   .     S
C61    Si4     1.837   1_655 S
C62    H230    1.138   .     S
C62    H231    1.139   .     S
C62    H232    1.117   .     S
C63    H233    1.111   .     S
C63    H234    1.122   .     S
C63    H235    1.098   .     S
C64    H236    1.132   .     S
C64    H237    1.116   .     S
C64    H238    1.096   .     S
C65    H239    1.152   .     S
C65    H240    1.080   .     S
C65    H241    1.141   .     S
C66    H242    1.097   .     S
C66    H243    1.127   .     S
C66    H244    1.107   .     S
C66    Si7     1.881   1_556 S
C67    H245    1.106   .     S
C67    H246    1.057   .     S
C67    H247    1.127   .     S
C68    H248    1.127   .     S
C68    H249    1.124   .     S
C68    H250    1.052   .     S
C70    H251    1.100   .     S
C70    H252    1.140   .     S
C70    H253    1.152   .     S
C71    H254    1.056   .     S
C71    H255    1.074   .     S
C71    H256    1.082   .     S
C72    H257    1.129   .     S
C72    H258    1.085   .     S
C72    H259    1.084   .     S
O73    Si7     1.589   1_556 S
C74    H260    1.177   .     S
C74    H261    1.124   .     S
C74    H262    1.136   .     S
C74    Si10    1.863   1_655 S
O77    Si1     1.591   1_565 S
C78    H263    1.159   .     S
C78    H264    1.116   .     S
C78    H265    1.134   .     S
C78    Si12    1.865   1_655 S
C80    H266    1.127   .     S
C80    H267    1.046   .     S
C80    H268    1.104   .     S
C81    H269    1.071   .     S
C81    H270    1.154   .     S
C81    H271    1.090   .     S
C81    Si1     1.805   1_565 S
C82    H272    1.065   .     S
C82    H273    1.065   .     S
C82    H274    1.096   .     S
C82    Si13    1.838   1_556 S
C83    H275    1.090   .     S
C83    H276    1.150   .     S
C83    H277    1.140   .     S
C83    Si13    1.900   1_556 S
C85    H278    1.168   .     S
C85    H279    1.131   .     S
C85    H280    1.135   .     S
C86    H281    1.028   .     S
C86    H282    1.104   .     S
C86    H283    1.069   .     S
C87    H284    1.105   .     S
C87    H285    1.172   .     S
C87    H286    1.130   .     S
C87    Si3     1.884   1_565 S
C88    H287    1.108   .     S
C88    H288    1.076   .     S
C88    H289    1.112   .     S
C89    H290    1.081   .     S
C89    H291    1.113   .     S
C89    H292    1.090   .     S
C90    H293    1.151   .     S
C90    H294    1.129   .     S
C90    H295    1.133   .     S
C91    H296    1.101   .     S
C91    H297    1.122   .     S
C91    H298    1.119   .     S
C92    H299    1.083   .     S
C92    H300    1.093   .     S
C92    H301    1.035   .     S
C94    H302    1.077   .     S
C94    H303    1.128   .     S
C94    H304    1.146   .     S
C95    H305    1.142   .     S
C95    H306    1.075   .     S
C95    H307    1.083   .     S
C96    H308    1.083   .     S
C96    H309    1.126   .     S
C96    H310    1.088   .     S
C96    Si17    1.859   1_565 S
C98    H311    1.124   .     S
C98    H312    1.106   .     S
C98    H313    1.175   .     S
C99    H314    1.093   .     S
C99    H315    1.133   .     S
C99    H316    1.136   .     S
C99    Si18    1.842   1_556 S
C100   H317    1.115   .     S
C100   H318    1.136   .     S
C100   H319    1.091   .     S
C101   H320    1.148   .     S
C101   H321    1.135   .     S
C101   H322    1.142   .     S
C101   Si19    1.866   1_565 S
C103   H323    1.109   .     S
C103   H324    1.131   .     S
C103   H325    1.057   .     S
C105   H326    1.089   .     S
C105   H327    1.107   .     S
C105   H328    1.136   .     S
C105   Si21    1.858   1_565 S
C106   H329    1.136   .     S
C106   H330    1.145   .     S
C106   H331    1.081   .     S
C106   Si21    1.862   1_565 S
C109   H332    1.176   .     S
C109   H333    1.114   .     S
C109   H334    1.098   .     S
C112   H335    1.090   .     S
C112   H336    1.092   .     S
C112   H337    1.037   .     S
C114   H338    1.086   .     S
C114   H339    1.144   .     S
C114   H340    1.071   .     S
C115   H341    1.050   .     S
C115   H342    1.148   .     S
C115   H343    1.073   .     S
C116   H344    1.134   .     S
C116   H345    1.108   .     S
C116   H346    1.122   .     S
C117   H347    1.142   .     S
C117   H348    1.099   .     S
C117   H349    1.104   .     S
C118   H350    1.040   .     S
C118   H351    1.092   .     S
C118   H352    1.140   .     S
C122   H353    1.031   .     S
C122   H354    1.063   .     S
C122   H355    1.090   .     S
C123   H356    1.088   .     S
C123   H357    1.076   .     S
C123   H358    1.175   .     S
C124   H359    1.159   .     S
C124   H360    1.072   .     S
C124   H361    1.041   .     S
O126   Si17    1.634   1_565 S
O132   Si19    1.561   1_565 S
C133   H362    1.117   .     S
C133   H363    1.146   .     S
C133   H364    1.109   .     S
C134   H365    1.131   .     S
C134   H366    1.116   .     S
C134   H367    1.105   .     S
C136   H368    1.051   .     S
C136   H369    1.093   .     S
C136   H370    1.099   .     S
C137   H371    1.071   .     S
C137   H372    1.044   .     S
C137   H373    1.120   .     S
C138   H374    1.137   .     S
C138   H375    1.126   .     S
C138   H376    1.099   .     S
C139   H377    1.136   .     S
C139   H378    1.125   .     S
C139   H379    1.098   .     S
C140   H380    1.129   .     S
C140   H381    1.057   .     S
C140   H382    1.080   .     S
C141   H383    1.115   .     S
C141   H384    1.140   .     S
C141   H385    1.062   .     S
C142   H386    1.033   .     S
C142   H387    1.118   .     S
C142   H388    1.093   .     S
C142   Si34    1.873   1_565 S
O145   Si2     1.589   1_655 S
O148   Si4     1.653   1_655 S
C149   H389    1.082   .     S
C149   H390    1.151   .     S
C149   H391    1.155   .     S
C149   Si37    1.875   1_565 S
C151   H392    1.080   .     S
C151   H393    1.133   .     S
C151   H394    1.109   .     S
C152   H395    1.084   .     S
C152   H396    1.054   .     S
C152   H397    1.105   .     S
O153   Si18    1.605   1_556 S
C154   H398    1.104   .     S
C154   H399    1.167   .     S
C154   H400    1.113   .     S
C157   H401    1.126   .     S
C157   H402    1.100   .     S
C157   H403    1.151   .     S
C159   H404    1.091   .     S
C159   H405    1.129   .     S
C159   H406    1.118   .     S
O160   Si6     1.631   1_655 S
C161   H407    1.090   .     S
C161   H408    1.123   .     S
C161   H409    1.120   .     S
O163   Si10    1.598   1_655 S
O163   Si42    1.600   1_556 S
C164   H410    1.102   .     S
C164   H411    1.170   .     S
C164   H412    1.063   .     S
C165   H413    1.078   .     S
C165   H414    1.103   .     S
C165   H415    1.163   .     S
C166   H416    1.067   .     S
C166   H417    1.141   .     S
C166   H418    1.118   .     S
C166   Si42    1.823   1_556 S
C169   H419    1.122   .     S
C169   H420    1.090   .     S
C169   H421    1.137   .     S
C170   H422    1.062   .     S
C170   H423    1.115   .     S
C170   H424    1.111   .     S
C171   H425    1.095   .     S
C171   H426    1.124   .     S
C171   H427    1.112   .     S
C173   H428    1.059   .     S
C173   H429    1.093   .     S
C173   H430    1.108   .     S
C173   Si6     1.868   1_655 S
C174   H431    1.100   .     S
C174   H432    1.082   .     S
C174   H433    1.064   .     S
O179   Si12    1.594   1_655 S
C180   H434    1.124   .     S
C180   H435    1.083   .     S
C180   H436    1.133   .     S
C180   Si47    1.905   1_556 S
C182   H437    1.151   .     S
C182   H438    1.143   .     S
C182   H439    1.113   .     S
C183   H440    1.128   .     S
C183   H441    1.113   .     S
C183   H442    1.117   .     S
C183   Si47    1.837   1_556 S
C186   H443    1.135   .     S
C186   H444    1.130   .     S
C186   H445    1.106   .     S
C187   H446    1.088   .     S
C187   H447    1.147   .     S
C187   H448    1.119   .     S
C189   H449    1.050   .     S
C189   H450    1.057   .     S
C189   H451    1.109   .     S
C190   H452    1.120   .     S
C190   H453    1.087   .     S
C190   H454    1.092   .     S
C190   Si34    1.905   1_565 S
C191   H455    1.111   .     S
C191   H456    1.088   .     S
C191   H457    1.158   .     S
C192   H458    1.043   .     S
C192   H459    1.117   .     S
C192   H460    1.091   .     S
C193   H461    1.092   .     S
C193   H462    1.134   .     S
C193   H463    1.097   .     S
C194   H464    1.076   .     S
C194   H465    1.125   .     S
C194   H466    1.126   .     S
C195   H467    1.141   .     S
C195   H468    1.132   .     S
C195   H469    1.090   .     S
C198   H470    1.132   .     S
C198   H471    1.085   .     S
C198   H472    1.133   .     S
C199   H473    1.170   .     S
C199   H474    1.095   .     S
C199   H475    1.055   .     S
C199   Si37    1.937   1_565 S
