data_333-13-11-12-15-30-16
_audit_creation_date              2025-03-07
_audit_creation_method            'Materials Studio'
_symmetry_space_group_name_H-M    'P1'
_symmetry_Int_Tables_number       1
_symmetry_cell_setting            triclinic
loop_
_symmetry_equiv_pos_as_xyz
  x,y,z
_cell_length_a                    16.4150
_cell_length_b                    15.4011
_cell_length_c                    20.3890
_cell_angle_alpha                 96.4623
_cell_angle_beta                  75.7134
_cell_angle_gamma                 120.0620
loop_
_atom_site_label
_atom_site_type_symbol
_atom_site_fract_x
_atom_site_fract_y
_atom_site_fract_z
_atom_site_U_iso_or_equiv
_atom_site_adp_type
_atom_site_occupancy
Si1    Si   -0.08374   0.16947   0.25559   0.00000  Uiso   1.00
Si2    Si    0.07866   0.03000   0.40879   0.00000  Uiso   1.00
Si3    Si    0.01486   0.30238   0.55662   0.00000  Uiso   1.00
Si4    Si    0.05170   0.17833   0.34020   0.00000  Uiso   1.00
Si5    Si    0.20255   0.11866   0.69816   0.00000  Uiso   1.00
Si6    Si    0.08207   0.33395   0.15300   0.00000  Uiso   1.00
Si7    Si   -0.05678   0.48870   0.22641   0.00000  Uiso   1.00
Si8    Si    0.11010   0.48362   0.04739   0.00000  Uiso   1.00
Si9    Si    0.08091   0.38101   0.41647   0.00000  Uiso   1.00
Si10   Si    0.06842   0.49959   0.31378   0.00000  Uiso   1.00
Si11   Si    0.33786   0.32742   0.64305   0.00000  Uiso   1.00
Si12   Si   -0.01668   0.47400   0.95116   0.00000  Uiso   1.00
Si13   Si    0.37267   0.73068   0.62341   0.00000  Uiso   1.00
Si14   Si    0.10675   0.66753   0.12739   0.00000  Uiso   1.00
Si15   Si   -0.08476   0.82278   0.28628   0.00000  Uiso   1.00
Si16   Si    0.08283   0.81206   0.05496   0.00000  Uiso   1.00
Si17   Si    0.05633   0.68221   0.40088   0.00000  Uiso   1.00
Si18   Si    0.10282   0.86250   0.32009   0.00000  Uiso   1.00
Si19   Si    0.47259   0.01193   0.13038   0.00000  Uiso   1.00
Si20   Si    0.51197   0.15066   0.01098   0.00000  Uiso   1.00
Si21   Si    0.35936  -0.03353   0.42615   0.00000  Uiso   1.00
Si22   Si    0.44969   0.15970   0.34431   0.00000  Uiso   1.00
Si23   Si    0.61965  -0.00421   0.80615   0.00000  Uiso   1.00
Si24   Si    0.41281   0.27782   0.05529   0.00000  Uiso   1.00
Si25   Si    0.24828   0.49646   0.20983   0.00000  Uiso   1.00
Si26   Si    0.41713   0.46175  -0.00234   0.00000  Uiso   1.00
Si27   Si    0.51789   0.68457   0.52381   0.00000  Uiso   1.00
Si28   Si    0.41036   0.48675   0.26950   0.00000  Uiso   1.00
Si29   Si    0.46350   0.24630   0.80899   0.00000  Uiso   1.00
Si30   Si    0.23586   0.41008   0.95049   0.00000  Uiso   1.00
Si31   Si    0.41449   0.63894   0.09678   0.00000  Uiso   1.00
Si32   Si    0.25572   0.84773   0.20271   0.00000  Uiso   1.00
Si33   Si    0.48938   0.84093   0.02971   0.00000  Uiso   1.00
Si34   Si    0.33943   0.81914   0.31110   0.00000  Uiso   1.00
Si35   Si    0.43594   0.82240   0.89375   0.00000  Uiso   1.00
Si36   Si    0.72389   0.90101   0.71833   0.00000  Uiso   1.00
Si37   Si    0.83226  -0.00615   0.15179   0.00000  Uiso   1.00
Si38   Si    0.60896   0.14516   0.23166   0.00000  Uiso   1.00
Si39   Si    0.70675   0.09551   0.32225   0.00000  Uiso   1.00
Si40   Si    0.69872   0.18254   0.90349   0.00000  Uiso   1.00
Si41   Si    0.90790   0.27216   0.70219   0.00000  Uiso   1.00
Si42   Si    0.80658   0.31568   0.14040   0.00000  Uiso   1.00
Si43   Si    0.80817   0.46111   0.05112   0.00000  Uiso   1.00
Si44   Si    0.68464   0.13744   0.47262   0.00000  Uiso   1.00
Si45   Si    0.83262   0.53118   0.65125   0.00000  Uiso   1.00
Si46   Si    0.74468   0.45948   0.30888   0.00000  Uiso   1.00
Si47   Si    0.88128   0.37051   0.83737   0.00000  Uiso   1.00
Si48   Si    0.53645   0.46770   0.85132   0.00000  Uiso   1.00
Si49   Si    0.92882   0.55914   0.76904   0.00000  Uiso   1.00
Si50   Si    1.02923   0.78314   0.78957   0.00000  Uiso   1.00
Si51   Si    0.67579   0.82487   0.96304   0.00000  Uiso   1.00
C52    C     0.17852   0.13295   0.44530   0.00000  Uiso   1.00
C53    C    -0.00468   0.94241   0.48055   0.00000  Uiso   1.00
C54    C     0.13848   0.32600   0.55146   0.00000  Uiso   1.00
C55    C     0.94894   0.16455   0.53789   0.00000  Uiso   1.00
O56    O    -0.04187   0.15273   0.31430   0.00000  Uiso   1.00
O57    O     0.02812   0.08126   0.38194   0.00000  Uiso   1.00
C58    C     0.16217   0.21354   0.27049   0.00000  Uiso   1.00
C59    C     0.12171   0.11824   0.77943   0.00000  Uiso   1.00
C60    C     1.13271   0.08744   0.63076   0.00000  Uiso   1.00
C61    C     1.24719   0.02856   0.68921   0.00000  Uiso   1.00
O62    O    -0.00852   0.27701   0.21582   0.00000  Uiso   1.00
C63    C     0.08798   0.23221   0.10226   0.00000  Uiso   1.00
O64    O     0.07002   0.40736   0.10979   0.00000  Uiso   1.00
O65    O     0.02365   0.36361   0.49511   0.00000  Uiso   1.00
O66    O     0.08308   0.27714   0.38508   0.00000  Uiso   1.00
O67    O    -0.00937   0.45939   0.27218   0.00000  Uiso   1.00
O68    O     0.03821   0.41680   0.36936   0.00000  Uiso   1.00
O69    O     0.29158   0.22932   0.68636   0.00000  Uiso   1.00
C70    C     0.35730   0.30283   0.55089   0.00000  Uiso   1.00
O71    O     0.02763   0.44567   1.00436   0.00000  Uiso   1.00
C72    C     0.07900   0.59024   0.90391   0.00000  Uiso   1.00
C73    C     0.27539   0.65706   0.57247   0.00000  Uiso   1.00
C74    C     0.26124   0.38686   0.68111   0.00000  Uiso   1.00
C75    C     0.32757   0.66547   0.70795   0.00000  Uiso   1.00
C76    C     0.38677   0.85960   0.63549   0.00000  Uiso   1.00
O77    O     0.02493   0.59913   0.19264   0.00000  Uiso   1.00
O78    O     0.13445   0.59271   0.07242   0.00000  Uiso   1.00
C79    C    -0.02224   0.95083   0.24572   0.00000  Uiso   1.00
C80    C     0.82726   0.81842   0.36545   0.00000  Uiso   1.00
C81    C     0.86005   0.72177   0.22938   0.00000  Uiso   1.00
O82    O     0.06262   0.71596   0.09073   0.00000  Uiso   1.00
C83    C     0.14734   0.92636   0.10781   0.00000  Uiso   1.00
C84    C    -0.02744   0.79690   1.02889   0.00000  Uiso   1.00
C85    C    -0.07472   0.62713   0.42693   0.00000  Uiso   1.00
O86    O     0.07853   0.60760   0.34570   0.00000  Uiso   1.00
C87    C     0.10707   0.69433   0.47825   0.00000  Uiso   1.00
O88    O    -0.00131   0.80602   0.30206   0.00000  Uiso   1.00
O89    O     0.10920   0.79248   0.36857   0.00000  Uiso   1.00
O90    O     0.11313   0.96862   0.35123   0.00000  Uiso   1.00
O91    O     0.49627   0.10141   0.08132   0.00000  Uiso   1.00
C92    C     0.43519   0.05166   0.96538   0.00000  Uiso   1.00
C93    C     0.42746  -0.07203   0.46010   0.00000  Uiso   1.00
C94    C     0.26197   0.96270   0.49306   0.00000  Uiso   1.00
C95    C     0.34577   0.11182   0.30566   0.00000  Uiso   1.00
O96    O     0.43065   0.07491   0.39276   0.00000  Uiso   1.00
C97    C     0.45968   0.27083   0.39768   0.00000  Uiso   1.00
C98    C     0.55958   0.01220   0.74596   0.00000  Uiso   1.00
C99    C     0.28910   0.18012   0.04035   0.00000  Uiso   1.00
O100   O     0.49064   0.24266   0.01828   0.00000  Uiso   1.00
C101   C     0.38860   0.25954   0.14840   0.00000  Uiso   1.00
O102   O     0.18720   0.39664   0.17578   0.00000  Uiso   1.00
O103   O     0.16999   0.52031   0.26274   0.00000  Uiso   1.00
O104   O     0.43273   0.38798   0.03675   0.00000  Uiso   1.00
C105   C     0.20673   0.48129   0.42253   0.00000  Uiso   1.00
C106   C     0.42367   0.55718   0.50759   0.00000  Uiso   1.00
C107   C     0.61268   0.67811   0.54835   0.00000  Uiso   1.00
C108   C     0.56799   0.75360   0.44390   0.00000  Uiso   1.00
O109   O     0.47025   0.73680   0.58131   0.00000  Uiso   1.00
O110   O     0.31739   0.48100   0.24579   0.00000  Uiso   1.00
C111   C     0.36558   0.37481   0.32500   0.00000  Uiso   1.00
C112   C     0.46405   0.59132   0.32960   0.00000  Uiso   1.00
C113   C     0.50979   0.50634   0.19850   0.00000  Uiso   1.00
C114   C     0.34125   0.15478   0.85115   0.00000  Uiso   1.00
C115   C     0.54762   0.22681   0.83897   0.00000  Uiso   1.00
C116   C     0.47864   0.21746   0.71876   0.00000  Uiso   1.00
C117   C     0.45903   0.41581   0.65890   0.00000  Uiso   1.00
C118   C     0.12873   0.28559   0.94553   0.00000  Uiso   1.00
O119   O     0.31435   0.40623   0.98041   0.00000  Uiso   1.00
C120   C     0.28077   0.45729   0.86279   0.00000  Uiso   1.00
O121   O     0.19955   0.47796   0.99620   0.00000  Uiso   1.00
O122   O     0.31289   0.58174   0.15337   0.00000  Uiso   1.00
O123   O     0.43691   0.56134   0.04419   0.00000  Uiso   1.00
C124   C     0.51067   0.69768   0.14594   0.00000  Uiso   1.00
O125   O     0.19889   0.76079   0.15322   0.00000  Uiso   1.00
O126   O     0.35773   0.95173   0.16748   0.00000  Uiso   1.00
O127   O     0.18226   0.88062   0.25286   0.00000  Uiso   1.00
O128   O     0.42433   0.73073   0.06040   0.00000  Uiso   1.00
O129   O     0.49813   0.93199   0.08559   0.00000  Uiso   1.00
O130   O     0.28090   0.79265   0.25067   0.00000  Uiso   1.00
C131   C     0.30333   0.70381   0.36020   0.00000  Uiso   1.00
O132   O     0.32074   0.89625   0.36542   0.00000  Uiso   1.00
C133   C     0.46296   0.85979   0.28090   0.00000  Uiso   1.00
C134   C     0.40731   0.69023   0.88258   0.00000  Uiso   1.00
O135   O     0.44424   0.85063   0.97130   0.00000  Uiso   1.00
O136   O     0.54462   0.89616   0.85032   0.00000  Uiso   1.00
C137   C     0.34446   0.83101   0.86013   0.00000  Uiso   1.00
C138   C     0.16804   0.84099   0.97478   0.00000  Uiso   1.00
C139   C     0.75872   0.94659   0.63249   0.00000  Uiso   1.00
C140   C     0.61494   0.77669   0.72075   0.00000  Uiso   1.00
O141   O     0.70536   0.97733   0.76832   0.00000  Uiso   1.00
C142   C     0.82618   0.89220   0.74169   0.00000  Uiso   1.00
C143   C     0.72650  -0.00412   0.14304   0.00000  Uiso   1.00
O144   O     0.89571   0.07695   0.19956   0.00000  Uiso   1.00
C145   C     0.79004   0.86459   0.18199   0.00000  Uiso   1.00
C146   C     0.90421   0.99693   0.06365   0.00000  Uiso   1.00
O147   O     0.54127   0.06160   0.18427   0.00000  Uiso   1.00
O148   O     0.54484   0.18623   0.28351   0.00000  Uiso   1.00
O149   O     0.81587   0.16160   0.28991   0.00000  Uiso   1.00
O150   O     0.64117   0.09196   0.27500   0.00000  Uiso   1.00
C151   C     0.68577  -0.03518   0.33144   0.00000  Uiso   1.00
O152   O     0.64839   0.09175   0.85409   0.00000  Uiso   1.00
C153   C     0.76317   0.14299   0.94161   0.00000  Uiso   1.00
O154   O     0.62264   0.19573   0.96578   0.00000  Uiso   1.00
O155   O     0.96987   0.32434   0.62927   0.00000  Uiso   1.00
C156   C     0.78818   0.24119   0.69670   0.00000  Uiso   1.00
C157   C     0.92324   0.16427   0.72388   0.00000  Uiso   1.00
O158   O     0.70534   0.24286   0.19337   0.00000  Uiso   1.00
C159   C     0.85386   0.23328   0.09471   0.00000  Uiso   1.00
O160   O     0.89459   0.40259   0.17482   0.00000  Uiso   1.00
O161   O     0.90279   0.49915   0.99162   0.00000  Uiso   1.00
O162   O     0.78439   0.36289   0.08787   0.00000  Uiso   1.00
C163   C     0.83478   0.56787   0.10976   0.00000  Uiso   1.00
C164   C     0.60513   0.17636   0.53784   0.00000  Uiso   1.00
O165   O     0.67449   0.13248   0.39601   0.00000  Uiso   1.00
C166   C     0.65909   0.01388   0.50371   0.00000  Uiso   1.00
C167   C     0.70978   0.43721   0.64516   0.00000  Uiso   1.00
C168   C     0.91156   0.49751   0.58416   0.00000  Uiso   1.00
C169   C     0.84042   0.64793   0.62291   0.00000  Uiso   1.00
O170   O     0.85994   0.50790   0.27438   0.00000  Uiso   1.00
C171   C     0.66815   0.43191   0.24676   0.00000  Uiso   1.00
C172   C     0.81040   0.24286   0.47009   0.00000  Uiso   1.00
C173   C     0.72154   0.34788   0.35202   0.00000  Uiso   1.00
C174   C     0.70910   0.53687   0.37488   0.00000  Uiso   1.00
O175   O     0.77146   0.28640   0.86076   0.00000  Uiso   1.00
O176   O     0.93065   0.34426   0.76581   0.00000  Uiso   1.00
O177   O     0.93862   0.39100   0.89492   0.00000  Uiso   1.00
O178   O     0.47099   0.35269   0.82940   0.00000  Uiso   1.00
C179   C     0.66401   0.49663   0.84769   0.00000  Uiso   1.00
C180   C     0.70171   0.43534   1.01906   0.00000  Uiso   1.00
O181   O     0.49462   0.49642   0.92696   0.00000  Uiso   1.00
C182   C     1.04221   0.56964   0.71394   0.00000  Uiso   1.00
O183   O     0.85245   0.54131   0.72467   0.00000  Uiso   1.00
O184   O     0.88467   0.46955   0.82352   0.00000  Uiso   1.00
C185   C     0.55233   0.55137   0.78461   0.00000  Uiso   1.00
C186   C     0.98935   0.84703   0.86717   0.00000  Uiso   1.00
O187   O     0.95767   0.66583   0.80505   0.00000  Uiso   1.00
C188   C     1.00637   0.81579   0.71535   0.00000  Uiso   1.00
C189   C     1.15734   0.81892   0.78373   0.00000  Uiso   1.00
C190   C     0.63927   0.73620   0.89604   0.00000  Uiso   1.00
C191   C     0.71312   0.76637   1.01957   0.00000  Uiso   1.00
C192   C     0.78829   0.93581   0.92490   0.00000  Uiso   1.00
O193   O     0.59748   0.85880   0.99712   0.00000  Uiso   1.00
H194   H     0.14125   0.13896   0.49848   0.00000  Uiso   1.00
H195   H     0.20755   0.20483   0.41836   0.00000  Uiso   1.00
H196   H     0.24328   0.12310   0.43803   0.00000  Uiso   1.00
H197   H    -0.07882   0.92165   0.47838   0.00000  Uiso   1.00
H198   H    -0.00056   0.99115   0.52505   0.00000  Uiso   1.00
H199   H     0.01597   0.89083   0.48806   0.00000  Uiso   1.00
H200   H     0.16131   0.29546   0.50495   0.00000  Uiso   1.00
H201   H     0.13545   0.28534   0.59524   0.00000  Uiso   1.00
H202   H     0.18483   0.40964   0.55527   0.00000  Uiso   1.00
H203   H     0.97508   0.13019   0.56738   0.00000  Uiso   1.00
H204   H     0.95615   0.14928   0.48496   0.00000  Uiso   1.00
H205   H     0.87257   0.13766   0.55361   0.00000  Uiso   1.00
H206   H     0.13976   0.16706   0.22961   0.00000  Uiso   1.00
H207   H     0.21609   0.20060   0.28600   0.00000  Uiso   1.00
H208   H     0.19714   0.29683   0.26352   0.00000  Uiso   1.00
H209   H     0.14214   0.09700   0.82194   0.00000  Uiso   1.00
H210   H     0.04640   0.05732   0.77825   0.00000  Uiso   1.00
H211   H     0.11798   0.18937   0.78970   0.00000  Uiso   1.00
H212   H     1.18291   0.10840   0.58027   0.00000  Uiso   1.00
H213   H     1.08891   0.12329   0.64189   0.00000  Uiso   1.00
H214   H     1.08250   0.00649   0.63425   0.00000  Uiso   1.00
H215   H     1.31727   0.04652   0.65296   0.00000  Uiso   1.00
H216   H     1.18996  -0.04282   0.67918   0.00000  Uiso   1.00
H217   H     1.26170   0.02454   0.73960   0.00000  Uiso   1.00
H218   H     0.02838   0.19724   0.07551   0.00000  Uiso   1.00
H219   H     0.09121   0.18061   0.13344   0.00000  Uiso   1.00
H220   H     0.15995   0.25615   0.06772   0.00000  Uiso   1.00
H221   H     0.29630   0.29762   0.53201   0.00000  Uiso   1.00
H222   H     0.35069   0.22594   0.54512   0.00000  Uiso   1.00
H223   H     0.42866   0.36661   0.52800   0.00000  Uiso   1.00
H224   H     0.12775   0.58098   0.86078   0.00000  Uiso   1.00
H225   H     0.13291   0.63279   0.93564   0.00000  Uiso   1.00
H226   H     0.04406   0.63271   0.89066   0.00000  Uiso   1.00
H227   H     0.31363   0.67175   0.51946   0.00000  Uiso   1.00
H228   H     0.22254   0.68281   0.57930   0.00000  Uiso   1.00
H229   H     0.23740   0.58024   0.59892   0.00000  Uiso   1.00
H230   H     0.26156   0.43803   0.64694   0.00000  Uiso   1.00
H231   H     0.29426   0.44067   0.71884   0.00000  Uiso   1.00
H232   H     0.18106   0.33458   0.70445   0.00000  Uiso   1.00
H233   H     0.26579   0.67241   0.73779   0.00000  Uiso   1.00
H234   H     0.38533   0.69819   0.73175   0.00000  Uiso   1.00
H235   H     0.30061   0.58611   0.70466   0.00000  Uiso   1.00
H236   H     0.31737   0.84985   0.64026   0.00000  Uiso   1.00
H237   H     0.43716   0.90459   0.58892   0.00000  Uiso   1.00
H238   H     0.41316   0.88640   0.68171   0.00000  Uiso   1.00
H239   H    -0.01737   0.94257   0.19055   0.00000  Uiso   1.00
H240   H     0.05300   0.98412   0.25060   0.00000  Uiso   1.00
H241   H    -0.05662   0.99348   0.26828   0.00000  Uiso   1.00
H242   H     0.82553   0.78059   0.40894   0.00000  Uiso   1.00
H243   H     0.75533   0.77780   0.35130   0.00000  Uiso   1.00
H244   H     0.83986   0.89105   0.38291   0.00000  Uiso   1.00
H245   H     0.90824   0.75004   0.17674   0.00000  Uiso   1.00
H246   H     0.78560   0.70141   0.23240   0.00000  Uiso   1.00
H247   H     0.86107   0.65464   0.24734   0.00000  Uiso   1.00
H248   H     0.11724   0.90216   0.15967   0.00000  Uiso   1.00
H249   H     0.13040   0.98838   0.09505   0.00000  Uiso   1.00
H250   H     0.22660   0.95176   0.09565   0.00000  Uiso   1.00
H251   H    -0.05676   0.73458   0.99357   0.00000  Uiso   1.00
H252   H    -0.00174   0.86965   1.00752   0.00000  Uiso   1.00
H253   H    -0.09164   0.78209   1.06965   0.00000  Uiso   1.00
H254   H    -0.10095   0.64436   0.38583   0.00000  Uiso   1.00
H255   H    -0.09319   0.66158   0.47159   0.00000  Uiso   1.00
H256   H    -0.10263   0.54815   0.43366   0.00000  Uiso   1.00
H257   H     0.18451   0.74507   0.46732   0.00000  Uiso   1.00
H258   H     0.08912   0.61818   0.49210   0.00000  Uiso   1.00
H259   H     0.07137   0.72564   0.52873   0.00000  Uiso   1.00
H260   H     0.47802   0.02614   0.92581   0.00000  Uiso   1.00
H261   H     0.40561   0.08873   0.94452   0.00000  Uiso   1.00
H262   H     0.37798  -0.01095   0.99981   0.00000  Uiso   1.00
H263   H     0.45784  -0.00962   0.49569   0.00000  Uiso   1.00
H264   H     0.48140  -0.07214   0.41836   0.00000  Uiso   1.00
H265   H     0.38160  -0.14939   0.48776   0.00000  Uiso   1.00
H266   H     0.25714   0.91581   0.53290   0.00000  Uiso   1.00
H267   H     0.19412   0.93394   0.47862   0.00000  Uiso   1.00
H268   H     0.27413   1.03889   0.51070   0.00000  Uiso   1.00
H269   H     0.29799   0.14078   0.32577   0.00000  Uiso   1.00
H270   H     0.30648   0.02830   0.30993   0.00000  Uiso   1.00
H271   H     0.37721   0.13106   0.24936   0.00000  Uiso   1.00
H272   H     0.49953   0.27733   0.43546   0.00000  Uiso   1.00
H273   H     0.38427   0.26009   0.41756   0.00000  Uiso   1.00
H274   H     0.50649   0.33421   0.36681   0.00000  Uiso   1.00
H275   H     0.57181  -0.02953   0.69686   0.00000  Uiso   1.00
H276   H     0.59845   0.08910   0.72907   0.00000  Uiso   1.00
H277   H     0.48587  -0.01002   0.75795   0.00000  Uiso   1.00
H278   H     0.28945   0.10986   0.02824   0.00000  Uiso   1.00
H279   H     0.28372   0.21182  -0.00070   0.00000  Uiso   1.00
H280   H     0.22727   0.16637   0.08133   0.00000  Uiso   1.00
H281   H     0.33320   0.17230   0.16362   0.00000  Uiso   1.00
H282   H     0.34836   0.29736   0.17717   0.00000  Uiso   1.00
H283   H     0.45766   0.28503   0.16501   0.00000  Uiso   1.00
H284   H     0.24120   0.50580   0.37135   0.00000  Uiso   1.00
H285   H     0.24874   0.44578   0.43259   0.00000  Uiso   1.00
H286   H     0.21287   0.54595   0.45969   0.00000  Uiso   1.00
H287   H     0.45284   0.51445   0.47480   0.00000  Uiso   1.00
H288   H     0.37346   0.56172   0.48217   0.00000  Uiso   1.00
H289   H     0.37816   0.52051   0.55510   0.00000  Uiso   1.00
H290   H     0.66793   0.75136   0.56291   0.00000  Uiso   1.00
H291   H     0.65168   0.65542   0.50472   0.00000  Uiso   1.00
H292   H     0.58081   0.61374   0.58783   0.00000  Uiso   1.00
H293   H     0.50811   0.75658   0.43255   0.00000  Uiso   1.00
H294   H     0.60057   0.72168   0.39984   0.00000  Uiso   1.00
H295   H     0.63071   0.83083   0.44686   0.00000  Uiso   1.00
H296   H     0.40326   0.40013   0.36676   0.00000  Uiso   1.00
H297   H     0.38263   0.31595   0.29651   0.00000  Uiso   1.00
H298   H     0.29046   0.34937   0.34739   0.00000  Uiso   1.00
H299   H     0.52822   0.59448   0.33802   0.00000  Uiso   1.00
H300   H     0.41676   0.59429   0.37574   0.00000  Uiso   1.00
H301   H     0.49296   0.65655   0.30078   0.00000  Uiso   1.00
H302   H     0.52041   0.44112   0.19928   0.00000  Uiso   1.00
H303   H     0.57105   0.57027   0.20898   0.00000  Uiso   1.00
H304   H     0.49081   0.50558   0.14858   0.00000  Uiso   1.00
H305   H     0.33400   0.08068   0.83612   0.00000  Uiso   1.00
H306   H     0.28041   0.16460   0.84726   0.00000  Uiso   1.00
H307   H     0.33360   0.15908   0.90577   0.00000  Uiso   1.00
H308   H     0.51892   0.14446   0.84143   0.00000  Uiso   1.00
H309   H     0.56184   0.26438   0.88733   0.00000  Uiso   1.00
H310   H     0.61165   0.24601   0.79997   0.00000  Uiso   1.00
H311   H     0.46326   0.13942   0.70533   0.00000  Uiso   1.00
H312   H     0.54878   0.27397   0.69159   0.00000  Uiso   1.00
H313   H     0.42211   0.22046   0.70088   0.00000  Uiso   1.00
H314   H     0.46245   0.48927   0.67232   0.00000  Uiso   1.00
H315   H     0.51517   0.42659   0.61008   0.00000  Uiso   1.00
H316   H     0.47265   0.38736   0.70004   0.00000  Uiso   1.00
H317   H     0.14307   0.22860   0.95654   0.00000  Uiso   1.00
H318   H     0.10746   0.26919   0.89467   0.00000  Uiso   1.00
H319   H     0.06611   0.28113   0.98064   0.00000  Uiso   1.00
H320   H     0.23978   0.49636   0.85496   0.00000  Uiso   1.00
H321   H     0.26046   0.39436   0.83166   0.00000  Uiso   1.00
H322   H     0.35901   0.50211   0.85719   0.00000  Uiso   1.00
H323   H     0.54756   0.77885   0.13663   0.00000  Uiso   1.00
H324   H     0.56064   0.66926   0.13266   0.00000  Uiso   1.00
H325   H     0.48105   0.68898   0.19724   0.00000  Uiso   1.00
H326   H     0.33529   0.71640   0.40247   0.00000  Uiso   1.00
H327   H     0.32884   0.66228   0.32161   0.00000  Uiso   1.00
H328   H     0.22333   0.65374   0.37774   0.00000  Uiso   1.00
H329   H     0.50859   0.93643   0.29933   0.00000  Uiso   1.00
H330   H     0.47478   0.85693   0.22454   0.00000  Uiso   1.00
H331   H     0.48516   0.81395   0.29982   0.00000  Uiso   1.00
H332   H     0.32523   0.65335   0.90057   0.00000  Uiso   1.00
H333   H     0.43689   0.67075   0.91742   0.00000  Uiso   1.00
H334   H     0.43356   0.68218   0.82923   0.00000  Uiso   1.00
H335   H     0.34793   0.90167   0.88334   0.00000  Uiso   1.00
H336   H     0.27223   0.75774   0.86866   0.00000  Uiso   1.00
H337   H     0.37864   0.84148   0.80521   0.00000  Uiso   1.00
H338   H     0.20749   0.92222   0.96455   0.00000  Uiso   1.00
H339   H     0.14041   0.79158   0.93377   0.00000  Uiso   1.00
H340   H     0.22395   0.82366   0.98413   0.00000  Uiso   1.00
H341   H     0.83010   0.95570   0.60318   0.00000  Uiso   1.00
H342   H     0.76629   1.02253   0.63823   0.00000  Uiso   1.00
H343   H     0.69566   0.89987   0.60977   0.00000  Uiso   1.00
H344   H     0.57087   0.78218   0.69158   0.00000  Uiso   1.00
H345   H     0.57345   0.74885   0.77518   0.00000  Uiso   1.00
H346   H     0.63707   0.72050   0.69392   0.00000  Uiso   1.00
H347   H     0.87829   0.88851   0.69619   0.00000  Uiso   1.00
H348   H     0.79395   0.81770   0.76843   0.00000  Uiso   1.00
H349   H     0.86979   0.95808   0.77096   0.00000  Uiso   1.00
H350   H     0.72969  -0.01514   0.08876   0.00000  Uiso   1.00
H351   H     0.73354   0.07166   0.15888   0.00000  Uiso   1.00
H352   H     0.65590  -0.06632   0.16666   0.00000  Uiso   1.00
H353   H     0.82959   0.82839   0.14810   0.00000  Uiso   1.00
H354   H     0.71304   0.82042   0.18385   0.00000  Uiso   1.00
H355   H     0.79350   0.86199   0.23492   0.00000  Uiso   1.00
H356   H     0.91160   1.05905   0.03317   0.00000  Uiso   1.00
H357   H     0.87507   0.92712   0.02831   0.00000  Uiso   1.00
H358   H     0.98120   1.02225   0.06423   0.00000  Uiso   1.00
H359   H     0.74398  -0.03743   0.34923   0.00000  Uiso   1.00
H360   H     0.68852  -0.06996   0.28301   0.00000  Uiso   1.00
H361   H     0.61497  -0.08236   0.36382   0.00000  Uiso   1.00
H362   H     0.70931   0.07492   0.97069   0.00000  Uiso   1.00
H363   H     0.80192   0.21257   0.96828   0.00000  Uiso   1.00
H364   H     0.81955   0.13316   0.90697   0.00000  Uiso   1.00
H365   H     0.78385   0.30831   0.67874   0.00000  Uiso   1.00
H366   H     0.73905   0.20192   0.74480   0.00000  Uiso   1.00
H367   H     0.77158   0.19235   0.65055   0.00000  Uiso   1.00
H368   H     0.89456   0.10337   0.68820   0.00000  Uiso   1.00
H369   H     0.88952   0.13546   0.77660   0.00000  Uiso   1.00
H370   H     0.99664   0.18415   0.72121   0.00000  Uiso   1.00
H371   H     0.79512   0.17029   0.07840   0.00000  Uiso   1.00
H372   H     0.87988   0.21214   0.13235   0.00000  Uiso   1.00
H373   H     0.91655   0.26953   0.04969   0.00000  Uiso   1.00
H374   H     0.77353   0.57829   0.12083   0.00000  Uiso   1.00
H375   H     0.90536   0.63544   0.08431   0.00000  Uiso   1.00
H376   H     0.84808   0.54804   0.15774   0.00000  Uiso   1.00
H377   H     0.53683   0.15597   0.52321   0.00000  Uiso   1.00
H378   H     0.64255   0.25959   0.54901   0.00000  Uiso   1.00
H379   H     0.59323   0.13941   0.58454   0.00000  Uiso   1.00
H380   H     0.71589  -0.00591   0.48619   0.00000  Uiso   1.00
H381   H     0.59163  -0.04754   0.48722   0.00000  Uiso   1.00
H382   H     0.63261   0.00114   0.56164   0.00000  Uiso   1.00
H383   H     0.70691   0.36690   0.64693   0.00000  Uiso   1.00
H384   H     0.69046   0.44516   0.59881   0.00000  Uiso   1.00
H385   H     0.65383   0.44326   0.68939   0.00000  Uiso   1.00
H386   H     0.88865   0.49956   0.53591   0.00000  Uiso   1.00
H387   H     0.90564   0.42601   0.59770   0.00000  Uiso   1.00
H388   H     0.98740   0.55209   0.58222   0.00000  Uiso   1.00
H389   H     0.91475   0.70849   0.61196   0.00000  Uiso   1.00
H390   H     0.79347   0.67233   0.66083   0.00000  Uiso   1.00
H391   H     0.81354   0.63134   0.57645   0.00000  Uiso   1.00
H392   H     0.58871   0.38065   0.26293   0.00000  Uiso   1.00
H393   H     0.69878   0.40958   0.20126   0.00000  Uiso   1.00
H394   H     0.67847   0.50478   0.23414   0.00000  Uiso   1.00
H395   H     0.82328   0.31797   0.45704   0.00000  Uiso   1.00
H396   H     0.86659   0.23010   0.43654   0.00000  Uiso   1.00
H397   H     0.81485   0.25155   0.52471   0.00000  Uiso   1.00
H398   H     0.73601   0.37058   0.40278   0.00000  Uiso   1.00
H399   H     0.77107   0.32012   0.32482   0.00000  Uiso   1.00
H400   H     0.64922   0.29029   0.36239   0.00000  Uiso   1.00
H401   H     0.73045   0.54153   0.42221   0.00000  Uiso   1.00
H402   H     0.63564   0.51446   0.38853   0.00000  Uiso   1.00
H403   H     0.73904   0.61219   0.35421   0.00000  Uiso   1.00
H404   H     0.71911   0.57237   0.82526   0.00000  Uiso   1.00
H405   H     0.67789   0.43871   0.81717   0.00000  Uiso   1.00
H406   H     0.66887   0.48547   0.90075   0.00000  Uiso   1.00
H407   H     0.69661   0.38253   0.97555   0.00000  Uiso   1.00
H408   H     0.70401   0.50341   1.00260   0.00000  Uiso   1.00
H409   H     0.63645   0.38614   1.06349   0.00000  Uiso   1.00
H410   H     1.08087   0.63414   0.67345   0.00000  Uiso   1.00
H411   H     1.02384   0.49750   0.68607   0.00000  Uiso   1.00
H412   H     1.09417   0.57680   0.74339   0.00000  Uiso   1.00
H413   H     0.48910   0.55656   0.78530   0.00000  Uiso   1.00
H414   H     0.59151   0.54087   0.73284   0.00000  Uiso   1.00
H415   H     0.60401   0.63063   0.79634   0.00000  Uiso   1.00
H416   H     0.92068   0.79080   0.90437   0.00000  Uiso   1.00
H417   H     0.97860   0.90237   0.85046   0.00000  Uiso   1.00
H418   H     1.04948   0.88341   0.89051   0.00000  Uiso   1.00
H419   H     1.02591   0.89473   0.71886   0.00000  Uiso   1.00
H420   H     0.93048   0.77312   0.71727   0.00000  Uiso   1.00
H421   H     1.05298   0.80253   0.66999   0.00000  Uiso   1.00
H422   H     1.20452   0.89196   0.80640   0.00000  Uiso   1.00
H423   H     1.18297   0.81914   0.72700   0.00000  Uiso   1.00
H424   H     1.16221   0.76488   0.81155   0.00000  Uiso   1.00
H425   H     0.61902   0.77096   0.86221   0.00000  Uiso   1.00
H426   H     0.57486   0.67389   0.92472   0.00000  Uiso   1.00
H427   H     0.69380   0.71326   0.86794   0.00000  Uiso   1.00
H428   H     0.78610   0.78045   0.99751   0.00000  Uiso   1.00
H429   H     0.66619   0.68248   1.01696   0.00000  Uiso   1.00
H430   H     0.70793   0.79443   1.07117   0.00000  Uiso   1.00
H431   H     0.77110   0.96161   0.88416   0.00000  Uiso   1.00
H432   H     0.84939   0.91484   0.90458   0.00000  Uiso   1.00
H433   H     0.80579   0.99659   0.96350   0.00000  Uiso   1.00
loop_
_geom_bond_atom_site_label_1
_geom_bond_atom_site_label_2
_geom_bond_distance
_geom_bond_site_symmetry_2
_ccdc_geom_bond_type
Si1    O56     1.620   .     S
Si1    O62     1.638   .     S
Si1    O144    1.671   1_455 S
Si1    O149    1.571   1_455 S
Si2    C52     1.867   .     S
Si2    O57     1.609   .     S
Si2    C53     1.855   1_545 S
Si2    O90     1.597   1_545 S
Si3    C54     1.851   .     S
Si3    O65     1.588   .     S
Si3    C55     1.882   1_455 S
Si3    O155    1.566   1_455 S
Si4    O56     1.594   .     S
Si4    O57     1.629   .     S
Si4    C58     1.876   .     S
Si4    O66     1.598   .     S
Si5    C59     1.848   .     S
Si5    O69     1.588   .     S
Si5    C60     1.874   1_455 S
Si5    C61     1.842   1_455 S
Si6    O62     1.621   .     S
Si6    C63     1.809   .     S
Si6    O64     1.621   .     S
Si6    O102    1.659   .     S
Si7    O67     1.577   .     S
Si7    O77     1.640   .     S
Si7    O160    1.594   1_455 S
Si7    O170    1.610   1_455 S
Si8    O64     1.606   .     S
Si8    O78     1.574   .     S
Si8    O71     1.619   1_554 S
Si8    O121    1.614   1_554 S
Si9    O65     1.621   .     S
Si9    O66     1.669   .     S
Si9    O68     1.599   .     S
Si9    C105    1.885   .     S
Si10   O67     1.535   .     S
Si10   O68     1.603   .     S
Si10   O86     1.659   .     S
Si10   O103    1.628   .     S
Si11   O69     1.568   .     S
Si11   C70     1.855   .     S
Si11   C74     1.880   .     S
Si11   C117    1.849   .     S
Si12   O71     1.646   .     S
Si12   C72     1.850   .     S
Si12   O161    1.575   1_455 S
Si12   O177    1.623   1_455 S
Si13   C73     1.911   .     S
Si13   C75     1.882   .     S
Si13   C76     1.875   .     S
Si13   O109    1.581   .     S
Si14   O77     1.643   .     S
Si14   O78     1.665   .     S
Si14   O82     1.604   .     S
Si14   O125    1.635   .     S
Si15   C79     1.883   .     S
Si15   O88     1.624   .     S
Si15   C80     1.863   1_455 S
Si15   C81     1.813   1_455 S
Si16   O82     1.570   .     S
Si16   C83     1.910   .     S
Si16   C84     1.907   1_554 S
Si16   C138    1.800   1_554 S
Si17   C85     1.827   .     S
Si17   O86     1.626   .     S
Si17   C87     1.909   .     S
Si17   O89     1.601   .     S
Si18   O88     1.601   .     S
Si18   O89     1.598   .     S
Si18   O90     1.626   .     S
Si18   O127    1.580   .     S
Si19   O91     1.622   .     S
Si19   O147    1.619   .     S
Si19   O126    1.640   1_545 S
Si19   O129    1.613   1_545 S
Si20   O91     1.602   .     S
Si20   O100    1.605   .     S
Si20   C92     1.764   1_554 S
Si20   O154    1.639   1_554 S
Si21   C93     1.794   .     S
Si21   O96     1.590   .     S
Si21   C94     1.808   1_545 S
Si21   O132    1.582   1_545 S
Si22   C95     1.829   .     S
Si22   O96     1.584   .     S
Si22   C97     1.878   .     S
Si22   O148    1.632   .     S
Si23   C98     1.860   .     S
Si23   O152    1.602   .     S
Si23   O136    1.598   1_545 S
Si23   O141    1.572   1_545 S
Si24   C99     1.903   .     S
Si24   O100    1.619   .     S
Si24   C101    1.865   .     S
Si24   O104    1.630   .     S
Si25   O102    1.552   .     S
Si25   O103    1.628   .     S
Si25   O110    1.613   .     S
Si25   O122    1.587   .     S
Si26   O104    1.609   .     S
Si26   O123    1.638   .     S
Si26   O119    1.575   1_554 S
Si26   O181    1.603   1_554 S
Si27   C106    1.848   .     S
Si27   C107    1.798   .     S
Si27   C108    1.820   .     S
Si27   O109    1.612   .     S
Si28   O110    1.670   .     S
Si28   C111    1.885   .     S
Si28   C112    1.881   .     S
Si28   C113    1.814   .     S
Si29   C114    1.828   .     S
Si29   C115    1.801   .     S
Si29   C116    1.829   .     S
Si29   O178    1.595   .     S
Si30   C118    1.856   .     S
Si30   O119    1.584   .     S
Si30   C120    1.837   .     S
Si30   O121    1.564   .     S
Si31   O122    1.642   .     S
Si31   O123    1.634   .     S
Si31   C124    1.860   .     S
Si31   O128    1.588   .     S
Si32   O125    1.609   .     S
Si32   O126    1.692   .     S
Si32   O127    1.626   .     S
Si32   O130    1.608   .     S
Si33   O128    1.583   .     S
Si33   O129    1.675   .     S
Si33   O135    1.605   1_554 S
Si33   O193    1.624   1_554 S
Si34   O130    1.639   .     S
Si34   C131    1.887   .     S
Si34   O132    1.622   .     S
Si34   C133    1.755   .     S
Si35   C134    1.846   .     S
Si35   O135    1.613   .     S
Si35   O136    1.635   .     S
Si35   C137    1.863   .     S
Si36   C139    1.807   .     S
Si36   C140    1.848   .     S
Si36   O141    1.565   .     S
Si36   C142    1.924   .     S
Si37   C143    1.804   .     S
Si37   O144    1.599   .     S
Si37   C145    1.872   1_545 S
Si37   C146    1.882   1_545 S
Si38   O147    1.625   .     S
Si38   O148    1.610   .     S
Si38   O150    1.600   .     S
Si38   O158    1.627   .     S
Si39   O149    1.556   .     S
Si39   O150    1.591   .     S
Si39   C151    1.888   .     S
Si39   O165    1.607   .     S
Si40   O152    1.609   .     S
Si40   C153    1.804   .     S
Si40   O154    1.621   .     S
Si40   O175    1.622   .     S
Si41   O155    1.611   .     S
Si41   C156    1.805   .     S
Si41   C157    1.913   .     S
Si41   O176    1.598   .     S
Si42   O158    1.645   .     S
Si42   C159    1.856   .     S
Si42   O160    1.650   .     S
Si42   O162    1.563   .     S
Si43   O162    1.588   .     S
Si43   C163    1.849   .     S
Si43   O161    1.595   1_554 S
Si43   C180    1.857   1_554 S
Si44   C164    1.892   .     S
Si44   O165    1.601   .     S
Si44   C166    1.881   .     S
Si44   C172    1.873   .     S
Si45   C167    1.826   .     S
Si45   C168    1.859   .     S
Si45   C169    1.884   .     S
Si45   O183    1.584   .     S
Si46   O170    1.637   .     S
Si46   C171    1.869   .     S
Si46   C173    1.842   .     S
Si46   C174    1.876   .     S
Si47   O175    1.591   .     S
Si47   O176    1.600   .     S
Si47   O177    1.590   .     S
Si47   O184    1.554   .     S
Si48   O178    1.626   .     S
Si48   C179    1.893   .     S
Si48   O181    1.635   .     S
Si48   C185    1.861   .     S
Si49   C182    1.860   .     S
Si49   O183    1.620   .     S
Si49   O184    1.615   .     S
Si49   O187    1.607   .     S
Si50   C186    1.919   .     S
Si50   O187    1.601   .     S
Si50   C188    1.823   .     S
Si50   C189    1.863   .     S
Si51   C190    1.804   .     S
Si51   C191    1.911   .     S
Si51   C192    1.834   .     S
Si51   O193    1.600   .     S
C52    H194    1.125   .     S
C52    H195    1.111   .     S
C52    H196    1.120   .     S
C53    H197    1.104   .     S
C53    H198    1.103   .     S
C53    H199    1.045   .     S
C53    Si2     1.855   1_565 S
C54    H200    1.078   .     S
C54    H201    1.124   .     S
C54    H202    1.126   .     S
C55    H203    1.119   .     S
C55    H204    1.068   .     S
C55    H205    1.076   .     S
C55    Si3     1.882   1_655 S
C58    H206    1.047   .     S
C58    H207    1.119   .     S
C58    H208    1.122   .     S
C59    H209    1.135   .     S
C59    H210    1.121   .     S
C59    H211    1.121   .     S
C60    H212    1.110   .     S
C60    H213    1.078   .     S
C60    H214    1.096   .     S
C60    Si5     1.874   1_655 S
C61    H215    1.120   .     S
C61    H216    1.069   .     S
C61    H217    1.125   .     S
C61    Si5     1.842   1_655 S
C63    H218    1.102   .     S
C63    H219    1.101   .     S
C63    H220    1.113   .     S
C70    H221    1.122   .     S
C70    H222    1.129   .     S
C70    H223    1.111   .     S
O71    Si8     1.619   1_556 S
C72    H224    1.083   .     S
C72    H225    1.112   .     S
C72    H226    1.150   .     S
C73    H227    1.092   .     S
C73    H228    1.096   .     S
C73    H229    1.148   .     S
C74    H230    1.106   .     S
C74    H231    1.088   .     S
C74    H232    1.150   .     S
C75    H233    1.095   .     S
C75    H234    1.040   .     S
C75    H235    1.072   .     S
C76    H236    1.052   .     S
C76    H237    1.119   .     S
C76    H238    1.087   .     S
C79    H239    1.105   .     S
C79    H240    1.101   .     S
C79    H241    1.066   .     S
C80    H242    1.102   .     S
C80    H243    1.121   .     S
C80    H244    1.066   .     S
C80    Si15    1.863   1_655 S
C81    H245    1.144   .     S
C81    H246    1.086   .     S
C81    H247    1.144   .     S
C81    Si15    1.813   1_655 S
C83    H248    1.071   .     S
C83    H249    1.190   .     S
C83    H250    1.122   .     S
C84    H251    1.106   .     S
C84    H252    1.081   .     S
C84    H253    1.106   .     S
C84    Si16    1.907   1_556 S
C85    H254    1.140   .     S
C85    H255    1.058   .     S
C85    H256    1.075   .     S
C87    H257    1.087   .     S
C87    H258    1.109   .     S
C87    H259    1.229   .     S
O90    Si2     1.597   1_565 S
C92    H260    1.107   .     S
C92    H261    1.085   .     S
C92    H262    1.107   .     S
C92    Si20    1.764   1_556 S
C93    H263    1.114   .     S
C93    H264    1.066   .     S
C93    H265    1.161   .     S
C94    H266    1.109   .     S
C94    H267    1.078   .     S
C94    H268    1.119   .     S
C94    Si21    1.808   1_565 S
C95    H269    1.064   .     S
C95    H270    1.116   .     S
C95    H271    1.142   .     S
C97    H272    1.094   .     S
C97    H273    1.134   .     S
C97    H274    1.043   .     S
C98    H275    1.158   .     S
C98    H276    1.075   .     S
C98    H277    1.048   .     S
C99    H278    1.085   .     S
C99    H279    1.057   .     S
C99    H280    1.086   .     S
C101   H281    1.208   .     S
C101   H282    1.112   .     S
C101   H283    1.126   .     S
C105   H284    1.065   .     S
C105   H285    1.136   .     S
C105   H286    1.159   .     S
C106   H287    1.081   .     S
C106   H288    1.109   .     S
C106   H289    1.076   .     S
C107   H290    1.103   .     S
C107   H291    1.094   .     S
C107   H292    1.165   .     S
C108   H293    1.087   .     S
C108   H294    1.123   .     S
C108   H295    1.125   .     S
C111   H296    1.097   .     S
C111   H297    1.137   .     S
C111   H298    1.077   .     S
C112   H299    1.085   .     S
C112   H300    1.075   .     S
C112   H301    1.048   .     S
C113   H302    1.104   .     S
C113   H303    1.045   .     S
C113   H304    1.133   .     S
C114   H305    1.102   .     S
C114   H306    1.104   .     S
C114   H307    1.088   .     S
C115   H308    1.112   .     S
C115   H309    1.101   .     S
C115   H310    1.074   .     S
C116   H311    1.113   .     S
C116   H312    1.086   .     S
C116   H313    1.100   .     S
C117   H314    1.110   .     S
C117   H315    1.140   .     S
C117   H316    1.104   .     S
C118   H317    1.074   .     S
C118   H318    1.137   .     S
C118   H319    1.073   .     S
O119   Si26    1.575   1_556 S
C120   H320    1.149   .     S
C120   H321    1.047   .     S
C120   H322    1.094   .     S
O121   Si8     1.614   1_556 S
C124   H323    1.097   .     S
C124   H324    1.078   .     S
C124   H325    1.031   .     S
O126   Si19    1.640   1_565 S
O129   Si19    1.613   1_565 S
C131   H326    1.067   .     S
C131   H327    1.094   .     S
C131   H328    1.124   .     S
O132   Si21    1.582   1_565 S
C133   H329    1.117   .     S
C133   H330    1.117   .     S
C133   H331    1.081   .     S
C134   H332    1.144   .     S
C134   H333    1.093   .     S
C134   H334    1.084   .     S
O135   Si33    1.605   1_556 S
O136   Si23    1.598   1_565 S
C137   H335    1.117   .     S
C137   H336    1.145   .     S
C137   H337    1.111   .     S
C138   H338    1.099   .     S
C138   H339    1.087   .     S
C138   H340    1.137   .     S
C138   Si16    1.800   1_556 S
C139   H341    1.122   .     S
C139   H342    1.108   .     S
C139   H343    1.104   .     S
C140   H344    1.081   .     S
C140   H345    1.149   .     S
C140   H346    1.136   .     S
O141   Si23    1.572   1_565 S
C142   H347    1.114   .     S
C142   H348    1.133   .     S
C142   H349    1.116   .     S
C143   H350    1.093   .     S
C143   H351    1.131   .     S
C143   H352    1.099   .     S
O144   Si1     1.671   1_655 S
C145   H353    1.124   .     S
C145   H354    1.087   .     S
C145   H355    1.101   .     S
C145   Si37    1.872   1_565 S
C146   H356    1.139   .     S
C146   H357    1.177   .     S
C146   H358    1.123   .     S
C146   Si37    1.882   1_565 S
O149   Si1     1.571   1_655 S
C151   H359    1.119   .     S
C151   H360    1.071   .     S
C151   H361    1.094   .     S
C153   H362    1.088   .     S
C153   H363    1.098   .     S
C153   H364    1.083   .     S
O154   Si20    1.639   1_556 S
O155   Si3     1.566   1_655 S
C156   H365    1.174   .     S
C156   H366    1.110   .     S
C156   H367    1.135   .     S
C157   H368    1.097   .     S
C157   H369    1.107   .     S
C157   H370    1.072   .     S
C159   H371    1.063   .     S
C159   H372    1.111   .     S
C159   H373    1.134   .     S
O160   Si7     1.594   1_655 S
O161   Si12    1.575   1_655 S
O161   Si43    1.595   1_556 S
C163   H374    1.063   .     S
C163   H375    1.145   .     S
C163   H376    1.157   .     S
C164   H377    1.112   .     S
C164   H378    1.134   .     S
C164   H379    1.090   .     S
C166   H380    1.089   .     S
C166   H381    1.139   .     S
C166   H382    1.156   .     S
C167   H383    1.064   .     S
C167   H384    1.105   .     S
C167   H385    1.151   .     S
C168   H386    1.145   .     S
C168   H387    1.116   .     S
C168   H388    1.092   .     S
C169   H389    1.087   .     S
C169   H390    1.124   .     S
C169   H391    1.094   .     S
O170   Si7     1.610   1_655 S
C171   H392    1.117   .     S
C171   H393    1.050   .     S
C171   H394    1.099   .     S
C172   H395    1.118   .     S
C172   H396    1.094   .     S
C172   H397    1.123   .     S
C173   H398    1.099   .     S
C173   H399    1.106   .     S
C173   H400    1.051   .     S
C174   H401    1.089   .     S
C174   H402    1.044   .     S
C174   H403    1.096   .     S
O177   Si12    1.623   1_655 S
C179   H404    1.117   .     S
C179   H405    1.115   .     S
C179   H406    1.142   .     S
C180   H407    1.123   .     S
C180   H408    1.117   .     S
C180   H409    1.185   .     S
C180   Si43    1.857   1_556 S
O181   Si26    1.603   1_556 S
C182   H410    1.169   .     S
C182   H411    1.120   .     S
C182   H412    1.115   .     S
C185   H413    1.077   .     S
C185   H414    1.134   .     S
C185   H415    1.124   .     S
C186   H416    1.159   .     S
C186   H417    1.058   .     S
C186   H418    1.064   .     S
C188   H419    1.090   .     S
C188   H420    1.071   .     S
C188   H421    1.117   .     S
C189   H422    1.125   .     S
C189   H423    1.129   .     S
C189   H424    1.103   .     S
C190   H425    1.117   .     S
C190   H426    1.089   .     S
C190   H427    1.128   .     S
C191   H428    1.086   .     S
C191   H429    1.128   .     S
C191   H430    1.091   .     S
C192   H431    1.109   .     S
C192   H432    1.171   .     S
C192   H433    1.120   .     S
O193   Si33    1.624   1_556 S
