data_333-11-11-14-15-30-16
_audit_creation_date              2025-03-07
_audit_creation_method            'Materials Studio'
_symmetry_space_group_name_H-M    'P1'
_symmetry_Int_Tables_number       1
_symmetry_cell_setting            triclinic
loop_
_symmetry_equiv_pos_as_xyz
  x,y,z
_cell_length_a                    17.6026
_cell_length_b                    16.7794
_cell_length_c                    17.5244
_cell_angle_alpha                 91.4351
_cell_angle_beta                  88.7411
_cell_angle_gamma                 122.0315
loop_
_atom_site_label
_atom_site_type_symbol
_atom_site_fract_x
_atom_site_fract_y
_atom_site_fract_z
_atom_site_U_iso_or_equiv
_atom_site_adp_type
_atom_site_occupancy
Si1    Si    0.12161   0.02775   0.11318   0.00000  Uiso   1.00
Si2    Si    0.12932   0.16986   0.00358   0.00000  Uiso   1.00
Si3    Si    0.14337   0.04658   0.75047   0.00000  Uiso   1.00
Si4    Si   -0.01797   0.16969   0.89558   0.00000  Uiso   1.00
Si5    Si    0.24112   0.16765   0.62150   0.00000  Uiso   1.00
Si6    Si    0.18991   0.34715   0.11164   0.00000  Uiso   1.00
Si7    Si   -0.00986   0.46210   0.26377   0.00000  Uiso   1.00
Si8    Si    0.16425   0.37012   0.39786   0.00000  Uiso   1.00
Si9    Si    0.11635   0.60140   0.50897   0.00000  Uiso   1.00
Si10   Si    0.19306   0.53176   0.29198   0.00000  Uiso   1.00
Si11   Si    0.07871   0.32384   0.77709   0.00000  Uiso   1.00
Si12   Si   -0.05487   0.51601   0.92120   0.00000  Uiso   1.00
Si13   Si    0.01430   0.83022   0.19535   0.00000  Uiso   1.00
Si14   Si    0.24108   0.96393   0.04078   0.00000  Uiso   1.00
Si15   Si    0.19844   0.70634   0.36321   0.00000  Uiso   1.00
Si16   Si   -0.02408   0.82011   0.56753   0.00000  Uiso   1.00
Si17   Si    0.18189   0.83127   0.25329   0.00000  Uiso   1.00
Si18   Si   -0.01851   0.91691   0.84988   0.00000  Uiso   1.00
Si19   Si    0.12125   0.86119   0.68531   0.00000  Uiso   1.00
Si20   Si    0.38551   0.13882   0.56042   0.00000  Uiso   1.00
Si21   Si    0.26213   0.19024   0.87783   0.00000  Uiso   1.00
Si22   Si    0.50709   0.14403   0.67181   0.00000  Uiso   1.00
Si23   Si    0.49108   0.33554   0.19802   0.00000  Uiso   1.00
Si24   Si    0.34226   0.51547   0.20041   0.00000  Uiso   1.00
Si25   Si    0.49472   0.42751   0.05623   0.00000  Uiso   1.00
Si26   Si    0.52696   0.31761   0.48184   0.00000  Uiso   1.00
Si27   Si    0.43832   0.56935   0.34741   0.00000  Uiso   1.00
Si28   Si    0.53882   0.61932   0.12511   0.00000  Uiso   1.00
Si29   Si    0.31777   0.80387   0.15731   0.00000  Uiso   1.00
Si30   Si    0.57730   0.77946   0.01197   0.00000  Uiso   1.00
Si31   Si    0.49785   0.77284   0.75724   0.00000  Uiso   1.00
Si32   Si    0.31774   0.72828   0.82709   0.00000  Uiso   1.00
Si33   Si    0.70140   0.15470   0.23120   0.00000  Uiso   1.00
Si34   Si    0.87475   0.15487   0.04904   0.00000  Uiso   1.00
Si35   Si    0.95887  -0.02823   0.36133   0.00000  Uiso   1.00
Si36   Si    0.65170   0.13639   0.57890   0.00000  Uiso   1.00
Si37   Si    0.83537   0.01234   0.77238   0.00000  Uiso   1.00
Si38   Si    0.78989   0.13068   0.67573   0.00000  Uiso   1.00
Si39   Si    0.87564   0.30612   0.14499   0.00000  Uiso   1.00
Si40   Si    0.80886   0.40767   0.04309   0.00000  Uiso   1.00
Si41   Si    0.80436   0.31210   0.50583   0.00000  Uiso   1.00
Si42   Si    0.67870   0.49577   0.54881   0.00000  Uiso   1.00
Si43   Si    0.86834   0.47880   0.39368   0.00000  Uiso   1.00
Si44   Si    0.75251   0.22087   0.80778   0.00000  Uiso   1.00
Si45   Si    0.71041   0.75396   0.21428   0.00000  Uiso   1.00
Si46   Si    0.64416   0.64038  -0.14450   0.00000  Uiso   1.00
Si47   Si    0.85207   0.64130   0.46025   0.00000  Uiso   1.00
Si48   Si    0.72297   0.89286   0.51941   0.00000  Uiso   1.00
Si49   Si    0.85688   0.76715   0.32065   0.00000  Uiso   1.00
Si50   Si    0.66647   0.83306   0.84848   0.00000  Uiso   1.00
Si51   Si    0.85317   0.89971   0.62934   0.00000  Uiso   1.00
C52    C     0.21695   0.12988   0.16740   0.00000  Uiso   1.00
O53    O     0.08289   0.07735   0.06027   0.00000  Uiso   1.00
O54    O     0.05540   0.16143   0.94023   0.00000  Uiso   1.00
C55    C     0.19465   0.15446   0.52641   0.00000  Uiso   1.00
O56    O     0.16256   0.10845   0.68190   0.00000  Uiso   1.00
C57    C     0.10785   0.29139   0.18731   0.00000  Uiso   1.00
O58    O     0.18038   0.26611   0.05692   0.00000  Uiso   1.00
C59    C     0.16734   0.42212   0.05768   0.00000  Uiso   1.00
C60    C    -0.00371   0.55359   0.19929   0.00000  Uiso   1.00
C61    C     0.04572   0.27957   0.37551   0.00000  Uiso   1.00
C62    C     0.22545   0.31983   0.35602   0.00000  Uiso   1.00
C63    C     0.18180   0.38408   0.50735   0.00000  Uiso   1.00
C64    C     0.22833   0.63467   0.54412   0.00000  Uiso   1.00
C65    C     1.05016   0.62793   0.57649   0.00000  Uiso   1.00
O66    O     0.09053   0.47946   0.26764   0.00000  Uiso   1.00
O67    O     0.19688   0.47076   0.36033   0.00000  Uiso   1.00
O68    O     0.03193   0.26851   0.85196   0.00000  Uiso   1.00
C69    C     0.32044   0.29870   0.63756   0.00000  Uiso   1.00
C70    C     0.08908   0.24330   0.70693   0.00000  Uiso   1.00
C71    C     0.01712   0.36860   0.72752   0.00000  Uiso   1.00
C72    C     0.19083   0.42666   0.79440   0.00000  Uiso   1.00
C73    C     0.01994   0.47366   0.94046   0.00000  Uiso   1.00
C74    C    -0.00079   0.63494   0.95804   0.00000  Uiso   1.00
O75    O     0.05039   0.93683   0.16866   0.00000  Uiso   1.00
C76    C     0.95646   0.75598   0.11132   0.00000  Uiso   1.00
C77    C     0.17574   0.83641   0.02951   0.00000  Uiso   1.00
O78    O     0.16820   0.99209   0.05623   0.00000  Uiso   1.00
C79    C     0.33745   1.03685   1.10543   0.00000  Uiso   1.00
O80    O     0.13179   0.65782   0.43278   0.00000  Uiso   1.00
O81    O     0.22125   0.63338   0.32486   0.00000  Uiso   1.00
C82    C     0.30174   0.80424   0.41146   0.00000  Uiso   1.00
C83    C     0.05356   0.86261   0.48426   0.00000  Uiso   1.00
O84    O     0.09465   0.81371   0.21032   0.00000  Uiso   1.00
O85    O     0.15959   0.74675   0.30469   0.00000  Uiso   1.00
C86    C     0.23034   0.94182   0.31225   0.00000  Uiso   1.00
C87    C     0.06038   0.90028   0.90525   0.00000  Uiso   1.00
C88    C     0.29704   1.00475   0.94782   0.00000  Uiso   1.00
O89    O     0.04794   1.00483   0.79294   0.00000  Uiso   1.00
C90    C     0.90192   0.80325   0.79681   0.00000  Uiso   1.00
O91    O     0.02634   0.81694   0.64043   0.00000  Uiso   1.00
C92    C     0.10664   0.77601   0.75797   0.00000  Uiso   1.00
O93    O     0.15511   0.96257   0.72640   0.00000  Uiso   1.00
C94    C     0.20897   0.87352   0.62063   0.00000  Uiso   1.00
C95    C     0.33601   0.05950   0.47454   0.00000  Uiso   1.00
O96    O     0.30303   0.12473   0.61073   0.00000  Uiso   1.00
O97    O     0.21714   0.10286   0.81764   0.00000  Uiso   1.00
C98    C     0.38630   0.24451   0.88885   0.00000  Uiso   1.00
C99    C     0.25212   0.28190   0.83794   0.00000  Uiso   1.00
O100   O     0.20557   0.16127   0.95542   0.00000  Uiso   1.00
O101   O     0.43613   0.10430   0.60431   0.00000  Uiso   1.00
C102   C     0.45390   0.07148   0.75487   0.00000  Uiso   1.00
C103   C     0.52924   0.26495   0.70265   0.00000  Uiso   1.00
C104   C     0.39523   0.31911   0.25536   0.00000  Uiso   1.00
C105   C     0.49398   0.22939   0.20121   0.00000  Uiso   1.00
C106   C     0.60326   0.43710   0.22206   0.00000  Uiso   1.00
O107   O     0.28488   0.41511   0.15378   0.00000  Uiso   1.00
O108   O     0.26699   0.54487   0.22317   0.00000  Uiso   1.00
O109   O     0.47119   0.34892   0.11376   0.00000  Uiso   1.00
C110   C     0.39013   0.40666   1.00837   0.00000  Uiso   1.00
C111   C     0.56978   0.42297   0.98388   0.00000  Uiso   1.00
O112   O     0.45511   0.24893   0.54001   0.00000  Uiso   1.00
C113   C     0.53877   0.24387   0.40622   0.00000  Uiso   1.00
O114   O     0.37549   0.50761   0.28194   0.00000  Uiso   1.00
C115   C     0.47128   0.36568   0.43169   0.00000  Uiso   1.00
C116   C     0.39141   0.54222   0.44870   0.00000  Uiso   1.00
C117   C     0.45896   0.69103   0.33920   0.00000  Uiso   1.00
C118   C     0.54977   0.58381   0.34500   0.00000  Uiso   1.00
O119   O     0.43060   0.58702   0.15230   0.00000  Uiso   1.00
O120   O     0.54081   0.52718   0.09873   0.00000  Uiso   1.00
C121   C     0.38877   0.86745   0.07603   0.00000  Uiso   1.00
C122   C     0.23935   0.67829   0.12604   0.00000  Uiso   1.00
C123   C     0.39362   0.80534   0.22524   0.00000  Uiso   1.00
O124   O     0.25568   0.84262   0.19028   0.00000  Uiso   1.00
O125   O     0.57064   0.69144   0.05572   0.00000  Uiso   1.00
C126   C     0.59509   0.86747   0.08407   0.00000  Uiso   1.00
C127   C     0.46222   0.72818   0.97902   0.00000  Uiso   1.00
C128   C     0.49335   0.67420   0.69998   0.00000  Uiso   1.00
C129   C     0.49121   0.85989   0.69670   0.00000  Uiso   1.00
C130   C     0.25162   0.67436   0.73588   0.00000  Uiso   1.00
O131   O     0.40984   0.73170   0.80946   0.00000  Uiso   1.00
C132   C     0.25780   0.65397   0.91387   0.00000  Uiso   1.00
C133   C     0.58435   0.07774   0.19245   0.00000  Uiso   1.00
C134   C     0.75019   0.08727   0.25785   0.00000  Uiso   1.00
C135   C     0.70081   0.21504   0.32138   0.00000  Uiso   1.00
O136   O     0.92283   0.17784   0.96426   0.00000  Uiso   1.00
C137   C     0.90021   0.07414   0.09352   0.00000  Uiso   1.00
C138   C     0.75231   0.09301   1.03525   0.00000  Uiso   1.00
C139   C     1.07756  -0.00274   0.34693   0.00000  Uiso   1.00
C140   C     0.97195   0.04028   0.44847   0.00000  Uiso   1.00
C141   C     0.55713   0.03547   0.52583   0.00000  Uiso   1.00
O142   O     0.60146   0.15918   0.64575   0.00000  Uiso   1.00
O143   O     0.92161   0.08680   0.83201   0.00000  Uiso   1.00
C144   C     0.88661   0.16149   0.61534   0.00000  Uiso   1.00
O145   O     0.70866   0.09759   0.61791   0.00000  Uiso   1.00
O146   O     0.78192   0.05513   0.73388   0.00000  Uiso   1.00
O147   O     0.77443   0.23362   0.17328   0.00000  Uiso   1.00
O148   O     0.90910   0.24601   0.09964   0.00000  Uiso   1.00
O149   O     0.93113   0.36000   0.22047   0.00000  Uiso   1.00
O150   O     0.85275   0.44797   0.96415   0.00000  Uiso   1.00
O151   O     0.86920   0.37701   0.08619   0.00000  Uiso   1.00
C152   C     0.79457   0.49686   0.10207   0.00000  Uiso   1.00
C153   C     0.69560   0.30281   1.03062   0.00000  Uiso   1.00
O154   O     0.70707   0.22262   0.52365   0.00000  Uiso   1.00
C155   C     0.87307   0.26805   0.46002   0.00000  Uiso   1.00
C156   C     0.84501   0.37085   0.59959   0.00000  Uiso   1.00
C157   C     1.05291   0.47854   0.49421   0.00000  Uiso   1.00
O158   O     0.61880   0.38931   0.51856   0.00000  Uiso   1.00
C159   C     0.74391   0.50953   0.63426   0.00000  Uiso   1.00
C160   C     0.59340   0.52977   0.57661   0.00000  Uiso   1.00
O161   O     0.94465   0.46757   0.34589   0.00000  Uiso   1.00
C162   C     0.78588   0.46661   0.32243   0.00000  Uiso   1.00
O163   O     0.81089   0.39236   0.45182   0.00000  Uiso   1.00
C164   C     0.71327   0.29879   0.80959   0.00000  Uiso   1.00
O165   O     0.79310   0.21166   0.72665   0.00000  Uiso   1.00
C166   C     0.84530   0.26580   0.86764   0.00000  Uiso   1.00
C167   C     0.66579   0.09779   0.84587   0.00000  Uiso   1.00
C168   C     0.92073   0.51783   0.81612   0.00000  Uiso   1.00
O169   O     0.61004   0.66691   0.19267   0.00000  Uiso   1.00
C170   C     0.77858   0.79455   0.12390   0.00000  Uiso   1.00
C171   C     0.70272   0.85493   0.25335   0.00000  Uiso   1.00
C172   C     0.91736   0.92967   0.93262   0.00000  Uiso   1.00
C173   C     0.66321   0.57088   0.78196   0.00000  Uiso   1.00
C174   C     0.52253   0.57175  -0.11904   0.00000  Uiso   1.00
C175   C     0.71318   0.65321  -0.06243   0.00000  Uiso   1.00
O176   O     0.74785   0.56317   0.48533   0.00000  Uiso   1.00
O177   O     0.89850   0.58107   0.43671   0.00000  Uiso   1.00
O178   O     0.89748   0.71455   0.53618   0.00000  Uiso   1.00
C179   C     0.67768   0.77632   0.47217   0.00000  Uiso   1.00
C180   C     0.73305   0.97495   0.44256   0.00000  Uiso   1.00
C181   C     0.94240   1.02899   0.28091   0.00000  Uiso   1.00
C182   C     0.62900   0.87302   0.58038   0.00000  Uiso   1.00
C183   C     0.34498   0.84964   0.84316   0.00000  Uiso   1.00
O184   O     0.94238   0.79479   0.26564   0.00000  Uiso   1.00
O185   O     0.76547   0.72701   0.27517   0.00000  Uiso   1.00
O186   O     0.84909   0.69447   0.38449   0.00000  Uiso   1.00
O187   O     0.88053   0.86244   0.36270   0.00000  Uiso   1.00
O188   O     0.58470   0.82946   0.80698   0.00000  Uiso   1.00
O189   O     0.67161   0.74520   0.82842   0.00000  Uiso   1.00
O190   O     0.76464   0.92520   0.82577   0.00000  Uiso   1.00
O191   O     0.64869   0.82453   0.94365   0.00000  Uiso   1.00
O192   O     0.93738   0.88694   0.59537   0.00000  Uiso   1.00
O193   O     0.81295   0.93640   0.56596   0.00000  Uiso   1.00
C194   C     0.75924   0.77515   0.64870   0.00000  Uiso   1.00
O195   O     0.87114   0.96471   0.70591   0.00000  Uiso   1.00
H196   H     0.26876   0.18514   0.12766   0.00000  Uiso   1.00
H197   H     0.25226   0.10900   0.20338   0.00000  Uiso   1.00
H198   H     0.19240   0.17138   0.19995   0.00000  Uiso   1.00
H199   H     0.25762   0.20010   0.48938   0.00000  Uiso   1.00
H200   H     0.15074   0.18399   0.52654   0.00000  Uiso   1.00
H201   H     0.16034   0.07884   0.51391   0.00000  Uiso   1.00
H202   H     0.12421   0.24878   0.21792   0.00000  Uiso   1.00
H203   H     0.03913   0.24046   0.16756   0.00000  Uiso   1.00
H204   H     0.10538   0.34423   0.22318   0.00000  Uiso   1.00
H205   H     0.22362   0.45973   0.02119   0.00000  Uiso   1.00
H206   H     0.15845   0.46427   0.10369   0.00000  Uiso   1.00
H207   H     0.10228   0.37965   0.02519   0.00000  Uiso   1.00
H208   H    -0.06767   0.54783   0.19922   0.00000  Uiso   1.00
H209   H     0.00356   0.53967   0.13678   0.00000  Uiso   1.00
H210   H     0.04520   0.61825   0.22198   0.00000  Uiso   1.00
H211   H     0.01178   0.31076   0.35231   0.00000  Uiso   1.00
H212   H     0.01425   0.24194   0.42543   0.00000  Uiso   1.00
H213   H     0.04568   0.23335   0.32912   0.00000  Uiso   1.00
H214   H     0.29071   0.33509   0.38617   0.00000  Uiso   1.00
H215   H     0.24331   0.33914   0.29508   0.00000  Uiso   1.00
H216   H     0.18605   0.24261   0.35283   0.00000  Uiso   1.00
H217   H     0.20352   0.45012   0.53133   0.00000  Uiso   1.00
H218   H     0.22937   0.36078   0.52315   0.00000  Uiso   1.00
H219   H     0.11876   0.33576   0.53596   0.00000  Uiso   1.00
H220   H     0.27456   0.64031   0.49826   0.00000  Uiso   1.00
H221   H     0.21437   0.57525   0.58688   0.00000  Uiso   1.00
H222   H     0.25376   0.69761   0.57329   0.00000  Uiso   1.00
H223   H     1.01912   0.58028   0.62425   0.00000  Uiso   1.00
H224   H     0.99073   0.61794   0.54510   0.00000  Uiso   1.00
H225   H     1.09268   0.69884   0.59550   0.00000  Uiso   1.00
H226   H     0.35583   0.33076   0.58288   0.00000  Uiso   1.00
H227   H     0.36749   0.31085   0.68682   0.00000  Uiso   1.00
H228   H     0.28087   0.32808   0.65378   0.00000  Uiso   1.00
H229   H     0.04270   0.17047   0.71740   0.00000  Uiso   1.00
H230   H     0.15668   0.25887   0.70793   0.00000  Uiso   1.00
H231   H     0.08514   0.26675   0.65005   0.00000  Uiso   1.00
H232   H     0.04625   0.39463   0.67103   0.00000  Uiso   1.00
H233   H     0.02648   0.43407   0.75640   0.00000  Uiso   1.00
H234   H    -0.05300   0.31958   0.72659   0.00000  Uiso   1.00
H235   H     0.18907   0.49169   0.78163   0.00000  Uiso   1.00
H236   H     0.24154   0.42727   0.75468   0.00000  Uiso   1.00
H237   H     0.20920   0.43554   0.85549   0.00000  Uiso   1.00
H238   H     0.06075   0.51994   0.99015   0.00000  Uiso   1.00
H239   H     0.06294   0.48623   0.88997   0.00000  Uiso   1.00
H240   H    -0.01426   0.39866   0.95762   0.00000  Uiso   1.00
H241   H     0.04233   0.63989   1.00654   0.00000  Uiso   1.00
H242   H    -0.05183   0.64809   0.97778   0.00000  Uiso   1.00
H243   H     0.05001   0.68882   0.91725   0.00000  Uiso   1.00
H244   H     0.96229   0.80144   0.06595   0.00000  Uiso   1.00
H245   H     0.88556   0.70960   0.13259   0.00000  Uiso   1.00
H246   H     0.98175   0.70971   0.09451   0.00000  Uiso   1.00
H247   H     0.12527   0.82293  -0.01350   0.00000  Uiso   1.00
H248   H     0.14987   0.79878   0.08178   0.00000  Uiso   1.00
H249   H     0.21722   0.81034  -0.00172   0.00000  Uiso   1.00
H250   H     0.36434   1.11641   1.10278   0.00000  Uiso   1.00
H251   H     0.38886   1.02227   1.08383   0.00000  Uiso   1.00
H252   H     0.31439   1.00925   1.16715   0.00000  Uiso   1.00
H253   H     0.28446   0.83044   0.46148   0.00000  Uiso   1.00
H254   H     0.34162   0.85435   0.36356   0.00000  Uiso   1.00
H255   H     0.33652   0.77648   0.44003   0.00000  Uiso   1.00
H256   H     0.11474   0.93470   0.49435   0.00000  Uiso   1.00
H257   H     0.01017   0.86236   0.43827   0.00000  Uiso   1.00
H258   H     0.06924   0.80969   0.46924   0.00000  Uiso   1.00
H259   H     0.22610   0.99572   0.27961   0.00000  Uiso   1.00
H260   H     0.30045   0.96486   0.32931   0.00000  Uiso   1.00
H261   H     0.18526   0.92267   0.36441   0.00000  Uiso   1.00
H262   H     0.09401   0.96580   0.94071   0.00000  Uiso   1.00
H263   H     0.11523   0.90910   0.86665   0.00000  Uiso   1.00
H264   H     0.02547   0.83495   0.93741   0.00000  Uiso   1.00
H265   H     0.26034   0.95308   0.89953   0.00000  Uiso   1.00
H266   H     0.36841   1.02158   0.94899   0.00000  Uiso   1.00
H267   H     0.29725   1.06577   0.94002   0.00000  Uiso   1.00
H268   H     0.84150   0.81265   0.78692   0.00000  Uiso   1.00
H269   H     0.87906   0.74287   0.83296   0.00000  Uiso   1.00
H270   H     0.92286   0.78985   0.74201   0.00000  Uiso   1.00
H271   H     0.16602   0.80328   0.79660   0.00000  Uiso   1.00
H272   H     0.09784   0.71229   0.72286   0.00000  Uiso   1.00
H273   H     0.04762   0.76692   0.79066   0.00000  Uiso   1.00
H274   H     0.18685   0.85468   0.56122   0.00000  Uiso   1.00
H275   H     0.22645   0.82352   0.64011   0.00000  Uiso   1.00
H276   H     0.27184   0.94690   0.62691   0.00000  Uiso   1.00
H277   H     0.27798  -0.00953   0.49046   0.00000  Uiso   1.00
H278   H     0.38847   0.05420   0.44529   0.00000  Uiso   1.00
H279   H     0.31316   0.09621   0.43703   0.00000  Uiso   1.00
H280   H     0.41368   0.20462   0.86538   0.00000  Uiso   1.00
H281   H     0.39437   0.24595   0.95060   0.00000  Uiso   1.00
H282   H     0.41980   0.30935   0.86096   0.00000  Uiso   1.00
H283   H     0.24729   0.32513   0.87980   0.00000  Uiso   1.00
H284   H     0.18411   0.24497   0.81365   0.00000  Uiso   1.00
H285   H     0.30459   0.31917   0.79689   0.00000  Uiso   1.00
H286   H     0.40092   0.08285   0.77633   0.00000  Uiso   1.00
H287   H     0.50094   0.08505   0.80143   0.00000  Uiso   1.00
H288   H     0.42086   0.00113   0.73683   0.00000  Uiso   1.00
H289   H     0.55447   0.27713   0.76398   0.00000  Uiso   1.00
H290   H     0.46841   0.26391   0.70329   0.00000  Uiso   1.00
H291   H     0.57999   0.31928   0.66252   0.00000  Uiso   1.00
H292   H     0.34314   0.31158   0.21600   0.00000  Uiso   1.00
H293   H     0.41414   0.38337   0.29127   0.00000  Uiso   1.00
H294   H     0.36806   0.25527   0.29373   0.00000  Uiso   1.00
H295   H     0.51397   0.21686   0.14313   0.00000  Uiso   1.00
H296   H     0.43393   0.17102   0.22195   0.00000  Uiso   1.00
H297   H     0.54617   0.24129   0.24370   0.00000  Uiso   1.00
H298   H     0.64457   0.40663   0.20147   0.00000  Uiso   1.00
H299   H     0.61655   0.44816   0.28660   0.00000  Uiso   1.00
H300   H     0.62514   0.49956   0.18981   0.00000  Uiso   1.00
H301   H     0.33219   0.34406   1.03402   0.00000  Uiso   1.00
H302   H     0.39917   0.40934   0.94846   0.00000  Uiso   1.00
H303   H     0.38555   0.46496   1.03097   0.00000  Uiso   1.00
H304   H     0.57126   0.45148   0.92590   0.00000  Uiso   1.00
H305   H     0.54538   0.34711   0.96781   0.00000  Uiso   1.00
H306   H     0.64130   0.45983   1.00178   0.00000  Uiso   1.00
H307   H     0.47553   0.20077   0.37117   0.00000  Uiso   1.00
H308   H     0.55625   0.20009   0.43469   0.00000  Uiso   1.00
H309   H     0.59243   0.29781   0.36962   0.00000  Uiso   1.00
H310   H     0.45974   0.41054   0.47012   0.00000  Uiso   1.00
H311   H     0.40467   0.30674   0.40891   0.00000  Uiso   1.00
H312   H     0.51615   0.41248   0.38640   0.00000  Uiso   1.00
H313   H     0.44439   0.58933   0.48828   0.00000  Uiso   1.00
H314   H     0.37427   0.47405   0.46477   0.00000  Uiso   1.00
H315   H     0.33739   0.55403   0.45976   0.00000  Uiso   1.00
H316   H     0.51080   0.72794   0.29581   0.00000  Uiso   1.00
H317   H     0.49224   0.73736   0.38946   0.00000  Uiso   1.00
H318   H     0.40075   0.69285   0.32917   0.00000  Uiso   1.00
H319   H     0.55909   0.55285   0.29237   0.00000  Uiso   1.00
H320   H     0.56643   0.56195   0.39905   0.00000  Uiso   1.00
H321   H     0.59941   0.66070   0.34660   0.00000  Uiso   1.00
H322   H     0.35650   0.87138   0.02267   0.00000  Uiso   1.00
H323   H     0.42965   0.84072   0.06146   0.00000  Uiso   1.00
H324   H     0.44714   0.93733   0.09944   0.00000  Uiso   1.00
H325   H     0.18520   0.63295   0.16729   0.00000  Uiso   1.00
H326   H     0.27226   0.64308   0.10824   0.00000  Uiso   1.00
H327   H     0.20081   0.67678   0.07563   0.00000  Uiso   1.00
H328   H     0.42196   0.76483   0.20165   0.00000  Uiso   1.00
H329   H     0.36367   0.77578   0.28038   0.00000  Uiso   1.00
H330   H     0.44541   0.87866   0.23951   0.00000  Uiso   1.00
H331   H     0.58993   0.92069   0.05407   0.00000  Uiso   1.00
H332   H     0.66712   0.91036   0.10999   0.00000  Uiso   1.00
H333   H     0.53979   0.83094   0.12872   0.00000  Uiso   1.00
H334   H     0.41557   0.71233   1.03073   0.00000  Uiso   1.00
H335   H     0.44696   0.65910   0.95191   0.00000  Uiso   1.00
H336   H     0.46508   0.78357   0.93971   0.00000  Uiso   1.00
H337   H     0.55310   0.66499   0.70641   0.00000  Uiso   1.00
H338   H     0.47758   0.67520   0.63778   0.00000  Uiso   1.00
H339   H     0.42886   0.61014   0.71576   0.00000  Uiso   1.00
H340   H     0.54845   0.92733   0.69497   0.00000  Uiso   1.00
H341   H     0.43649   0.86566   0.71659   0.00000  Uiso   1.00
H342   H     0.46839   0.82677   0.64024   0.00000  Uiso   1.00
H343   H     0.27206   0.63138   0.70426   0.00000  Uiso   1.00
H344   H     0.26514   0.73690   0.69929   0.00000  Uiso   1.00
H345   H     0.17581   0.62266   0.74273   0.00000  Uiso   1.00
H346   H     0.25000   0.58368   0.92084   0.00000  Uiso   1.00
H347   H     0.18548   0.63388   0.90791   0.00000  Uiso   1.00
H348   H     0.28806   0.69040   0.96745   0.00000  Uiso   1.00
H349   H     0.53213   0.04639   0.23747   0.00000  Uiso   1.00
H350   H     0.58239   0.01733   0.16551   0.00000  Uiso   1.00
H351   H     0.57284   0.11418   0.14307   0.00000  Uiso   1.00
H352   H     0.80647   0.13116   0.29242   0.00000  Uiso   1.00
H353   H     0.76505   0.05907   0.20730   0.00000  Uiso   1.00
H354   H     0.70139   0.02793   0.29144   0.00000  Uiso   1.00
H355   H     0.67467   0.15997   0.36653   0.00000  Uiso   1.00
H356   H     0.65438   0.23579   0.30422   0.00000  Uiso   1.00
H357   H     0.76813   0.27062   0.34289   0.00000  Uiso   1.00
H358   H     0.87628   0.06563   0.15040   0.00000  Uiso   1.00
H359   H     0.97316   0.10252   0.10188   0.00000  Uiso   1.00
H360   H     0.87268   0.01271   0.05690   0.00000  Uiso   1.00
H361   H     0.72347   0.02911   0.99532   0.00000  Uiso   1.00
H362   H     0.74027   0.14138   0.99961   0.00000  Uiso   1.00
H363   H     0.71160   0.07637   1.08761   0.00000  Uiso   1.00
H364   H     1.12246   0.03940   0.39141   0.00000  Uiso   1.00
H365   H     1.09968   0.03610   0.29268   0.00000  Uiso   1.00
H366   H     1.07918  -0.06858   0.33258   0.00000  Uiso   1.00
H367   H     0.97821  -0.00088   0.49530   0.00000  Uiso   1.00
H368   H     0.91417   0.04762   0.46145   0.00000  Uiso   1.00
H369   H     1.03105   0.10881   0.44207   0.00000  Uiso   1.00
H370   H     0.58912   0.01601   0.47904   0.00000  Uiso   1.00
H371   H     0.51601   0.05895   0.49960   0.00000  Uiso   1.00
H372   H     0.51936  -0.02128   0.56636   0.00000  Uiso   1.00
H373   H     0.86975   0.13867   0.55888   0.00000  Uiso   1.00
H374   H     0.92497   0.12586   0.63239   0.00000  Uiso   1.00
H375   H     0.93580   0.23508   0.62408   0.00000  Uiso   1.00
H376   H     0.74455   0.51043   0.07976   0.00000  Uiso   1.00
H377   H     0.85592   0.56968   0.10242   0.00000  Uiso   1.00
H378   H     0.78027   0.47449   0.15774   0.00000  Uiso   1.00
H379   H     0.66804   0.28348   1.08760   0.00000  Uiso   1.00
H380   H     0.70199   0.24742   0.99985   0.00000  Uiso   1.00
H381   H     0.65695   0.32500   0.99853   0.00000  Uiso   1.00
H382   H     0.93675   0.29813   0.48965   0.00000  Uiso   1.00
H383   H     0.88916   0.29677   0.39922   0.00000  Uiso   1.00
H384   H     0.84050   0.19050   0.45336   0.00000  Uiso   1.00
H385   H     0.89163   0.44671   0.60021   0.00000  Uiso   1.00
H386   H     0.88221   0.34034   0.62019   0.00000  Uiso   1.00
H387   H     0.78728   0.34962   0.63925   0.00000  Uiso   1.00
H388   H     1.07551   0.46388   0.43838   0.00000  Uiso   1.00
H389   H     0.98477   0.45891   0.48389   0.00000  Uiso   1.00
H390   H     1.05826   0.43531   0.53994   0.00000  Uiso   1.00
H391   H     0.70462   0.46364   0.67916   0.00000  Uiso   1.00
H392   H     0.77224   0.58422   0.65464   0.00000  Uiso   1.00
H393   H     0.80516   0.50731   0.62549   0.00000  Uiso   1.00
H394   H     0.62039   0.59269   0.61639   0.00000  Uiso   1.00
H395   H     0.53777   0.47116   0.60716   0.00000  Uiso   1.00
H396   H     0.57424   0.54843   0.52568   0.00000  Uiso   1.00
H397   H     0.76067   0.39950   0.28966   0.00000  Uiso   1.00
H398   H     0.80811   0.53113   0.28694   0.00000  Uiso   1.00
H399   H     0.73098   0.45990   0.35674   0.00000  Uiso   1.00
H400   H     0.70163   0.31546   0.75503   0.00000  Uiso   1.00
H401   H     0.76339   0.36502   0.83369   0.00000  Uiso   1.00
H402   H     0.65819   0.27263   0.84681   0.00000  Uiso   1.00
H403   H     0.82465   0.25911   0.92633   0.00000  Uiso   1.00
H404   H     0.89496   0.33574   0.85060   0.00000  Uiso   1.00
H405   H     0.86538   0.21707   0.85060   0.00000  Uiso   1.00
H406   H     0.62044   0.05716   0.80123   0.00000  Uiso   1.00
H407   H     0.62744   0.10926   0.89236   0.00000  Uiso   1.00
H408   H     0.70723   0.07080   0.86917   0.00000  Uiso   1.00
H409   H     0.98484   0.56574   0.78630   0.00000  Uiso   1.00
H410   H     0.87671   0.54469   0.80680   0.00000  Uiso   1.00
H411   H     0.89765   0.44885   0.78363   0.00000  Uiso   1.00
H412   H     0.84701   0.83962   0.13854   0.00000  Uiso   1.00
H413   H     0.76099   0.83055   0.08532   0.00000  Uiso   1.00
H414   H     0.76647   0.73370   0.09191   0.00000  Uiso   1.00
H415   H     0.63536   0.83970   0.24611   0.00000  Uiso   1.00
H416   H     0.74932   0.92117   0.21732   0.00000  Uiso   1.00
H417   H     0.71888   0.86172   0.31470   0.00000  Uiso   1.00
H418   H     0.96632   0.99340   0.96647   0.00000  Uiso   1.00
H419   H     0.89528   0.86579   0.97202   0.00000  Uiso   1.00
H420   H     0.85339   0.93137   0.92371   0.00000  Uiso   1.00
H421   H     0.61001   0.54679   0.73715   0.00000  Uiso   1.00
H422   H     0.65561   0.50840   0.81275   0.00000  Uiso   1.00
H423   H     0.73013   0.62200   0.75663   0.00000  Uiso   1.00
H424   H     0.51877   0.56746  -0.05698   0.00000  Uiso   1.00
H425   H     0.48981   0.50222  -0.14707   0.00000  Uiso   1.00
H426   H     0.49390   0.61043  -0.14813   0.00000  Uiso   1.00
H427   H     0.76027   0.63150  -0.07859   0.00000  Uiso   1.00
H428   H     0.66933   0.60525  -0.01311   0.00000  Uiso   1.00
H429   H     0.74708   0.72663  -0.03563   0.00000  Uiso   1.00
H430   H     0.62993   0.76366   0.42980   0.00000  Uiso   1.00
H431   H     0.64233   0.71918   0.51493   0.00000  Uiso   1.00
H432   H     0.73366   0.77488   0.44814   0.00000  Uiso   1.00
H433   H     0.78471   0.99257   0.39656   0.00000  Uiso   1.00
H434   H     0.74429   1.04717   0.46159   0.00000  Uiso   1.00
H435   H     0.67127   0.94080   0.41087   0.00000  Uiso   1.00
H436   H     0.91146   0.97487   0.23895   0.00000  Uiso   1.00
H437   H     1.00001   1.09204   0.26395   0.00000  Uiso   1.00
H438   H     0.89760   1.05284   0.29811   0.00000  Uiso   1.00
H439   H     0.64023   0.94284   0.58941   0.00000  Uiso   1.00
H440   H     0.63371   0.84259   0.63347   0.00000  Uiso   1.00
H441   H     0.56826   0.83199   0.54637   0.00000  Uiso   1.00
H442   H     0.41500   0.89725   0.85488   0.00000  Uiso   1.00
H443   H     0.31014   0.85688   0.89701   0.00000  Uiso   1.00
H444   H     0.33062   0.88033   0.79499   0.00000  Uiso   1.00
H445   H     0.70398   0.77385   0.66991   0.00000  Uiso   1.00
H446   H     0.78270   0.74509   0.68872   0.00000  Uiso   1.00
H447   H     0.74565   0.73296   0.59400   0.00000  Uiso   1.00
loop_
_geom_bond_atom_site_label_1
_geom_bond_atom_site_label_2
_geom_bond_distance
_geom_bond_site_symmetry_2
_ccdc_geom_bond_type
Si1    C52     1.896   .     S
Si1    O53     1.639   .     S
Si1    O75     1.684   1_545 S
Si1    O78     1.575   1_545 S
Si2    O53     1.661   .     S
Si2    O58     1.646   .     S
Si2    O54     1.675   1_554 S
Si2    O100    1.638   1_554 S
Si3    O56     1.519   .     S
Si3    O97     1.635   .     S
Si3    O89     1.609   1_545 S
Si3    O93     1.576   1_545 S
Si4    O54     1.594   .     S
Si4    O68     1.611   .     S
Si4    O136    1.625   1_455 S
Si4    O143    1.647   1_455 S
Si5    C55     1.829   .     S
Si5    O56     1.597   .     S
Si5    C69     1.896   .     S
Si5    O96     1.599   .     S
Si6    C57     1.807   .     S
Si6    O58     1.580   .     S
Si6    C59     1.800   .     S
Si6    O107    1.622   .     S
Si7    C60     1.884   .     S
Si7    O66     1.634   .     S
Si7    O149    1.634   1_455 S
Si7    O161    1.656   1_455 S
Si8    C61     1.860   .     S
Si8    C62     1.819   .     S
Si8    C63     1.939   .     S
Si8    O67     1.620   .     S
Si9    C64     1.856   .     S
Si9    O80     1.590   .     S
Si9    C65     1.849   1_455 S
Si9    C157    1.763   1_455 S
Si10   O66     1.595   .     S
Si10   O67     1.620   .     S
Si10   O81     1.597   .     S
Si10   O108    1.684   .     S
Si11   O68     1.570   .     S
Si11   C70     1.881   .     S
Si11   C71     1.853   .     S
Si11   C72     1.831   .     S
Si12   C73     1.838   .     S
Si12   C74     1.803   .     S
Si12   O150    1.592   1_455 S
Si12   C168    1.905   1_455 S
Si13   O75     1.626   .     S
Si13   O84     1.607   .     S
Si13   C76     1.840   1_455 S
Si13   O184    1.626   1_455 S
Si14   C77     1.822   .     S
Si14   O78     1.601   .     S
Si14   C79     1.863   1_554 S
Si14   C88     1.834   1_554 S
Si15   O80     1.581   .     S
Si15   O81     1.606   .     S
Si15   C82     1.884   .     S
Si15   O85     1.593   .     S
Si16   C83     1.854   .     S
Si16   O91     1.589   .     S
Si16   O178    1.654   1_455 S
Si16   O192    1.649   1_455 S
Si17   O84     1.604   .     S
Si17   O85     1.560   .     S
Si17   C86     1.871   .     S
Si17   O124    1.621   .     S
Si18   C87     1.852   .     S
Si18   O89     1.653   .     S
Si18   C90     1.897   1_455 S
Si18   C172    1.895   1_455 S
Si19   O91     1.635   .     S
Si19   C92     1.849   .     S
Si19   O93     1.628   .     S
Si19   C94     1.819   .     S
Si20   C95     1.877   .     S
Si20   O96     1.591   .     S
Si20   O101    1.524   .     S
Si20   O112    1.629   .     S
Si21   O97     1.618   .     S
Si21   C98     1.882   .     S
Si21   C99     1.798   .     S
Si21   O100    1.593   .     S
Si22   O101    1.596   .     S
Si22   C102    1.816   .     S
Si22   C103    1.917   .     S
Si22   O142    1.599   .     S
Si23   C104    1.838   .     S
Si23   C105    1.811   .     S
Si23   C106    1.847   .     S
Si23   O109    1.574   .     S
Si24   O107    1.639   .     S
Si24   O108    1.679   .     S
Si24   O114    1.590   .     S
Si24   O119    1.607   .     S
Si25   O109    1.548   .     S
Si25   O120    1.592   .     S
Si25   C110    1.893   1_554 S
Si25   C111    1.840   1_554 S
Si26   O112    1.557   .     S
Si26   C113    1.873   .     S
Si26   C115    1.815   .     S
Si26   O158    1.555   .     S
Si27   O114    1.547   .     S
Si27   C116    1.902   .     S
Si27   C117    1.883   .     S
Si27   C118    1.844   .     S
Si28   O119    1.740   .     S
Si28   O120    1.621   .     S
Si28   O125    1.607   .     S
Si28   O169    1.602   .     S
Si29   C121    1.820   .     S
Si29   C122    1.880   .     S
Si29   C123    1.798   .     S
Si29   O124    1.631   .     S
Si30   O125    1.629   .     S
Si30   C126    1.819   .     S
Si30   C127    1.832   1_554 S
Si30   O191    1.599   1_554 S
Si31   C128    1.880   .     S
Si31   C129    1.881   .     S
Si31   O131    1.597   .     S
Si31   O188    1.574   .     S
Si32   C130    1.903   .     S
Si32   O131    1.615   .     S
Si32   C132    1.900   .     S
Si32   C183    1.843   .     S
Si33   C133    1.889   .     S
Si33   C134    1.820   .     S
Si33   C135    1.858   .     S
Si33   O147    1.625   .     S
Si34   C137    1.832   .     S
Si34   O148    1.570   .     S
Si34   O136    1.643   1_554 S
Si34   C138    1.849   1_554 S
Si35   C139    1.909   .     S
Si35   C140    1.831   .     S
Si35   C181    1.837   1_545 S
Si35   O187    1.608   1_545 S
Si36   C141    1.871   .     S
Si36   O142    1.610   .     S
Si36   O145    1.625   .     S
Si36   O154    1.585   .     S
Si37   O143    1.718   .     S
Si37   O146    1.620   .     S
Si37   O190    1.628   1_545 S
Si37   O195    1.687   1_545 S
Si38   C144    1.817   .     S
Si38   O145    1.604   .     S
Si38   O146    1.592   .     S
Si38   O165    1.583   .     S
Si39   O147    1.610   .     S
Si39   O148    1.602   .     S
Si39   O149    1.607   .     S
Si39   O151    1.643   .     S
Si40   O151    1.612   .     S
Si40   C152    1.919   .     S
Si40   O150    1.554   1_554 S
Si40   C153    1.843   1_554 S
Si41   O154    1.599   .     S
Si41   C155    1.879   .     S
Si41   C156    1.845   .     S
Si41   O163    1.618   .     S
Si42   O158    1.601   .     S
Si42   C159    1.841   .     S
Si42   C160    1.918   .     S
Si42   O176    1.594   .     S
Si43   O161    1.659   .     S
Si43   C162    1.860   .     S
Si43   O163    1.624   .     S
Si43   O177    1.668   .     S
Si44   C164    1.773   .     S
Si44   O165    1.618   .     S
Si44   C166    1.751   .     S
Si44   C167    1.929   .     S
Si45   O169    1.632   .     S
Si45   C170    1.875   .     S
Si45   C171    1.881   .     S
Si45   O185    1.678   .     S
Si46   C174    1.865   .     S
Si46   C175    1.837   .     S
Si46   C173    1.859   1_554 S
Si46   O189    1.638   1_554 S
Si47   O176    1.649   .     S
Si47   O177    1.643   .     S
Si47   O178    1.686   .     S
Si47   O186    1.635   .     S
Si48   C179    1.854   .     S
Si48   C180    1.888   .     S
Si48   C182    1.829   .     S
Si48   O193    1.583   .     S
Si49   O184    1.621   .     S
Si49   O185    1.599   .     S
Si49   O186    1.625   .     S
Si49   O187    1.588   .     S
Si50   O188    1.599   .     S
Si50   O189    1.555   .     S
Si50   O190    1.644   .     S
Si50   O191    1.686   .     S
Si51   O192    1.700   .     S
Si51   O193    1.626   .     S
Si51   C194    1.887   .     S
Si51   O195    1.634   .     S
C52    H196    1.133   .     S
C52    H197    1.080   .     S
C52    H198    1.134   .     S
O54    Si2     1.675   1_556 S
C55    H199    1.153   .     S
C55    H200    1.118   .     S
C55    H201    1.096   .     S
C57    H202    1.061   .     S
C57    H203    1.105   .     S
C57    H204    1.093   .     S
C59    H205    1.057   .     S
C59    H206    1.122   .     S
C59    H207    1.134   .     S
C60    H208    1.078   .     S
C60    H209    1.133   .     S
C60    H210    1.039   .     S
C61    H211    1.072   .     S
C61    H212    1.052   .     S
C61    H213    1.109   .     S
C62    H214    1.171   .     S
C62    H215    1.113   .     S
C62    H216    1.099   .     S
C63    H217    1.042   .     S
C63    H218    1.137   .     S
C63    H219    1.087   .     S
C64    H220    1.100   .     S
C64    H221    1.177   .     S
C64    H222    1.029   .     S
C65    H223    1.090   .     S
C65    H224    1.122   .     S
C65    H225    1.065   .     S
C65    Si9     1.849   1_655 S
C69    H226    1.114   .     S
C69    H227    1.147   .     S
C69    H228    1.076   .     S
C70    H229    1.068   .     S
C70    H230    1.075   .     S
C70    H231    1.098   .     S
C71    H232    1.093   .     S
C71    H233    1.129   .     S
C71    H234    1.060   .     S
C72    H235    1.136   .     S
C72    H236    1.116   .     S
C72    H237    1.109   .     S
C73    H238    1.131   .     S
C73    H239    1.100   .     S
C73    H240    1.115   .     S
C74    H241    1.124   .     S
C74    H242    1.081   .     S
C74    H243    1.129   .     S
O75    Si1     1.684   1_565 S
C76    H244    1.081   .     S
C76    H245    1.125   .     S
C76    H246    1.112   .     S
C76    Si13    1.840   1_655 S
C77    H247    1.103   .     S
C77    H248    1.073   .     S
C77    H249    1.155   .     S
O78    Si1     1.575   1_565 S
C79    H250    1.158   .     S
C79    H251    1.112   .     S
C79    H252    1.164   .     S
C79    Si14    1.863   1_556 S
C82    H253    1.079   .     S
C82    H254    1.135   .     S
C82    H255    1.082   .     S
C83    H256    1.127   .     S
C83    H257    1.121   .     S
C83    H258    1.086   .     S
C86    H259    1.118   .     S
C86    H260    1.125   .     S
C86    H261    1.132   .     S
C87    H262    1.112   .     S
C87    H263    1.112   .     S
C87    H264    1.095   .     S
C88    H265    1.131   .     S
C88    H266    1.133   .     S
C88    H267    1.034   .     S
C88    Si14    1.834   1_556 S
O89    Si3     1.609   1_565 S
C90    H268    1.172   .     S
C90    H269    1.085   .     S
C90    H270    1.082   .     S
C90    Si18    1.897   1_655 S
C92    H271    1.126   .     S
C92    H272    1.158   .     S
C92    H273    1.114   .     S
O93    Si3     1.576   1_565 S
C94    H274    1.098   .     S
C94    H275    1.099   .     S
C94    H276    1.143   .     S
C95    H277    1.101   .     S
C95    H278    1.090   .     S
C95    H279    1.126   .     S
C98    H280    1.081   .     S
C98    H281    1.092   .     S
C98    H282    1.051   .     S
C99    H283    1.052   .     S
C99    H284    1.105   .     S
C99    H285    1.069   .     S
O100   Si2     1.638   1_556 S
C102   H286    1.103   .     S
C102   H287    1.106   .     S
C102   H288    1.045   .     S
C103   H289    1.144   .     S
C103   H290    1.061   .     S
C103   H291    1.124   .     S
C104   H292    1.110   .     S
C104   H293    1.124   .     S
C104   H294    1.143   .     S
C105   H295    1.121   .     S
C105   H296    1.054   .     S
C105   H297    1.125   .     S
C106   H298    1.137   .     S
C106   H299    1.150   .     S
C106   H300    1.076   .     S
C110   H301    1.101   .     S
C110   H302    1.057   .     S
C110   H303    1.088   .     S
C110   Si25    1.893   1_556 S
C111   H304    1.128   .     S
C111   H305    1.136   .     S
C111   H306    1.117   .     S
C111   Si25    1.840   1_556 S
C113   H307    1.137   .     S
C113   H308    1.072   .     S
C113   H309    1.104   .     S
C115   H310    1.092   .     S
C115   H311    1.133   .     S
C115   H312    1.103   .     S
C116   H313    1.093   .     S
C116   H314    1.061   .     S
C116   H315    1.082   .     S
C117   H316    1.090   .     S
C117   H317    1.108   .     S
C117   H318    1.060   .     S
C118   H319    1.099   .     S
C118   H320    1.123   .     S
C118   H321    1.110   .     S
C121   H322    1.126   .     S
C121   H323    1.055   .     S
C121   H324    1.147   .     S
C122   H325    1.113   .     S
C122   H326    1.062   .     S
C122   H327    1.117   .     S
C123   H328    1.104   .     S
C123   H329    1.087   .     S
C123   H330    1.101   .     S
C126   H331    1.093   .     S
C126   H332    1.172   .     S
C126   H333    1.137   .     S
C127   H334    1.146   .     S
C127   H335    1.135   .     S
C127   H336    1.150   .     S
C127   Si30    1.832   1_556 S
C128   H337    1.149   .     S
C128   H338    1.133   .     S
C128   H339    1.108   .     S
C129   H340    1.043   .     S
C129   H341    1.068   .     S
C129   H342    1.097   .     S
C130   H343    1.097   .     S
C130   H344    1.154   .     S
C130   H345    1.148   .     S
C132   H346    1.122   .     S
C132   H347    1.137   .     S
C132   H348    1.089   .     S
C133   H349    1.105   .     S
C133   H350    1.091   .     S
C133   H351    1.153   .     S
C134   H352    1.059   .     S
C134   H353    1.085   .     S
C134   H354    1.084   .     S
C135   H355    1.123   .     S
C135   H356    1.094   .     S
C135   H357    1.116   .     S
O136   Si4     1.625   1_655 S
O136   Si34    1.643   1_556 S
C137   H358    1.057   .     S
C137   H359    1.119   .     S
C137   H360    1.077   .     S
C138   H361    1.139   .     S
C138   H362    1.144   .     S
C138   H363    1.098   .     S
C138   Si34    1.849   1_556 S
C139   H364    1.067   .     S
C139   H365    1.107   .     S
C139   H366    1.142   .     S
C140   H367    1.129   .     S
C140   H368    1.106   .     S
C140   H369    1.072   .     S
C141   H370    1.121   .     S
C141   H371    1.103   .     S
C141   H372    1.093   .     S
O143   Si4     1.647   1_655 S
C144   H373    1.043   .     S
C144   H374    1.161   .     S
C144   H375    1.077   .     S
O149   Si7     1.634   1_655 S
O150   Si12    1.592   1_655 S
O150   Si40    1.554   1_556 S
C152   H376    1.101   .     S
C152   H377    1.122   .     S
C152   H378    1.031   .     S
C153   H379    1.080   .     S
C153   H380    1.118   .     S
C153   H381    1.102   .     S
C153   Si40    1.843   1_556 S
C155   H382    1.092   .     S
C155   H383    1.147   .     S
C155   H384    1.113   .     S
C156   H385    1.089   .     S
C156   H386    1.094   .     S
C156   H387    1.113   .     S
C157   H388    1.118   .     S
C157   H389    1.080   .     S
C157   H390    1.132   .     S
C157   Si9     1.763   1_655 S
C159   H391    1.064   .     S
C159   H392    1.127   .     S
C159   H393    1.106   .     S
C160   H394    1.128   .     S
C160   H395    1.093   .     S
C160   H396    1.071   .     S
O161   Si7     1.656   1_655 S
C162   H397    1.115   .     S
C162   H398    1.134   .     S
C162   H399    1.082   .     S
C164   H400    1.057   .     S
C164   H401    1.070   .     S
C164   H402    1.046   .     S
C166   H403    1.072   .     S
C166   H404    1.072   .     S
C166   H405    1.083   .     S
C167   H406    1.067   .     S
C167   H407    1.123   .     S
C167   H408    1.130   .     S
C168   H409    1.107   .     S
C168   H410    1.100   .     S
C168   H411    1.143   .     S
C168   Si12    1.905   1_655 S
C170   H412    1.061   .     S
C170   H413    1.070   .     S
C170   H414    1.071   .     S
C171   H415    1.082   .     S
C171   H416    1.163   .     S
C171   H417    1.106   .     S
C172   H418    1.119   .     S
C172   H419    1.166   .     S
C172   H420    1.155   .     S
C172   Si18    1.895   1_655 S
C173   H421    1.128   .     S
C173   H422    1.133   .     S
C173   H423    1.116   .     S
C173   Si46    1.859   1_556 S
C174   H424    1.090   .     S
C174   H425    1.098   .     S
C174   H426    1.145   .     S
C175   H427    1.098   .     S
C175   H428    1.156   .     S
C175   H429    1.139   .     S
O178   Si16    1.654   1_655 S
C179   H430    1.064   .     S
C179   H431    1.118   .     S
C179   H432    1.075   .     S
C180   H433    1.122   .     S
C180   H434    1.161   .     S
C180   H435    1.081   .     S
C181   H436    1.059   .     S
C181   H437    1.049   .     S
C181   H438    1.091   .     S
C181   Si35    1.837   1_565 S
C182   H439    1.088   .     S
C182   H440    1.098   .     S
C182   H441    1.095   .     S
C183   H442    1.076   .     S
C183   H443    1.153   .     S
C183   H444    1.100   .     S
O184   Si13    1.626   1_655 S
O187   Si35    1.608   1_565 S
O189   Si46    1.638   1_556 S
O190   Si37    1.628   1_565 S
O191   Si30    1.599   1_556 S
O192   Si16    1.649   1_655 S
C194   H445    1.023   .     S
C194   H446    1.081   .     S
C194   H447    1.129   .     S
O195   Si37    1.687   1_565 S
