data_333-7-11-18-15-30-17
_audit_creation_date              2025-03-07
_audit_creation_method            'Materials Studio'
_symmetry_space_group_name_H-M    'P1'
_symmetry_Int_Tables_number       1
_symmetry_cell_setting            triclinic
loop_
_symmetry_equiv_pos_as_xyz
  x,y,z
_cell_length_a                    17.4978
_cell_length_b                    18.5904
_cell_length_c                    18.9674
_cell_angle_alpha                 86.6704
_cell_angle_beta                  86.6111
_cell_angle_gamma                 118.0238
loop_
_atom_site_label
_atom_site_type_symbol
_atom_site_fract_x
_atom_site_fract_y
_atom_site_fract_z
_atom_site_U_iso_or_equiv
_atom_site_adp_type
_atom_site_occupancy
Si1    Si    0.09565  -0.11612   0.41395   0.00000  Uiso   1.00
Si2    Si    0.00213   0.14568   0.61289   0.00000  Uiso   1.00
Si3    Si    0.08906   0.04073   0.36519   0.00000  Uiso   1.00
Si4    Si    0.17621   0.22482   0.67922   0.00000  Uiso   1.00
Si5    Si    0.13333   0.38914   0.09953   0.00000  Uiso   1.00
Si6    Si    0.20136   0.45177  -0.05392   0.00000  Uiso   1.00
Si7    Si    0.06615   0.16731   0.45150   0.00000  Uiso   1.00
Si8    Si   -0.01257   0.50467   0.52463   0.00000  Uiso   1.00
Si9    Si    0.10801   0.53947   0.28154   0.00000  Uiso   1.00
Si10   Si    0.21059   0.40654   0.66087   0.00000  Uiso   1.00
Si11   Si    0.06216   0.47412   0.87574   0.00000  Uiso   1.00
Si12   Si    0.11405   0.43584   0.54279   0.00000  Uiso   1.00
Si13   Si    0.43069   0.99637   0.16452   0.00000  Uiso   1.00
Si14   Si    0.07991   0.76481   0.15661   0.00000  Uiso   1.00
Si15   Si    0.37714   1.12438   0.14850   0.00000  Uiso   1.00
Si16   Si    0.10805   0.63866   0.40864   0.00000  Uiso   1.00
Si17   Si    0.13110   0.78115   0.30935   0.00000  Uiso   1.00
Si18   Si    0.16151   0.65498   0.81551   0.00000  Uiso   1.00
Si19   Si    0.41774  -0.13716   0.50475   0.00000  Uiso   1.00
Si20   Si    0.20034  -0.01858   0.52886   0.00000  Uiso   1.00
Si21   Si    0.24158   0.00868   0.88356   0.00000  Uiso   1.00
Si22   Si    0.58218   0.49496   0.10669   0.00000  Uiso   1.00
Si23   Si    0.24424   0.55038   0.16516   0.00000  Uiso   1.00
Si24   Si    0.53060   0.54007  -0.03754   0.00000  Uiso   1.00
Si25   Si    0.78952   0.63223   0.26891   0.00000  Uiso   1.00
Si26   Si    0.43540   0.10571   0.83594   0.00000  Uiso   1.00
Si27   Si    0.35919   0.42084   0.91004   0.00000  Uiso   1.00
Si28   Si    0.39197   0.70768   0.09229   0.00000  Uiso   1.00
Si29   Si    0.33460   0.87010   0.29051   0.00000  Uiso   1.00
Si30   Si    0.44594   0.80795  -0.04854   0.00000  Uiso   1.00
Si31   Si    0.44712   0.66410   0.38133   0.00000  Uiso   1.00
Si32   Si    0.22809   0.72191   0.52159   0.00000  Uiso   1.00
Si33   Si    0.47610   0.84508   0.35509   0.00000  Uiso   1.00
Si34   Si    0.79029   0.03102   0.16439   0.00000  Uiso   1.00
Si35   Si    0.57506   0.25002   0.37789   0.00000  Uiso   1.00
Si36   Si    0.77653   0.20193   0.59890   0.00000  Uiso   1.00
Si37   Si    0.77041   0.31235   0.35328   0.00000  Uiso   1.00
Si38   Si    0.91143   0.23027   0.69795   0.00000  Uiso   1.00
Si39   Si    0.80958   0.32726   0.02909   0.00000  Uiso   1.00
Si40   Si    0.76814   0.54322   0.13514   0.00000  Uiso   1.00
Si41   Si    0.93971   0.50546  -0.02335   0.00000  Uiso   1.00
Si42   Si    0.81475   0.35771   0.50080   0.00000  Uiso   1.00
Si43   Si    0.69684   0.41014   0.69792   0.00000  Uiso   1.00
Si44   Si    0.93448   0.38477   0.76700   0.00000  Uiso   1.00
Si45   Si    0.89390   0.50118   0.67199   0.00000  Uiso   1.00
Si46   Si    0.94959   0.64486   0.06290   0.00000  Uiso   1.00
Si47   Si    0.64524   0.89683   0.26549   0.00000  Uiso   1.00
Si48   Si    0.92203   0.75833  -0.04409   0.00000  Uiso   1.00
Si49   Si    0.74658   0.89156   0.38931   0.00000  Uiso   1.00
Si50   Si    0.87536   0.65663   0.67034   0.00000  Uiso   1.00
Si51   Si    0.52298   0.79221   0.80857   0.00000  Uiso   1.00
C52    C     0.00175   0.79092   0.46814   0.00000  Uiso   1.00
C53    C     0.92319   0.03799   0.64584   0.00000  Uiso   1.00
C54    C     0.03970   0.03779   0.28306   0.00000  Uiso   1.00
O55    O     0.06420  -0.04922   0.39305   0.00000  Uiso   1.00
C56    C     0.21049   0.10136   0.34287   0.00000  Uiso   1.00
O57    O     0.09239   0.16574   0.64315   0.00000  Uiso   1.00
C58    C     0.15059   0.20524   0.77845   0.00000  Uiso   1.00
C59    C     0.01284   0.33601   0.11847   0.00000  Uiso   1.00
C60    C     0.16828   0.32757   0.15494   0.00000  Uiso   1.00
O61    O     0.16394   0.39887   0.01605   0.00000  Uiso   1.00
O62    O     0.01120   0.14711   0.52706   0.00000  Uiso   1.00
O63    O     0.06244   0.08613   0.42405   0.00000  Uiso   1.00
C64    C     0.18115   0.24712   0.46696   0.00000  Uiso   1.00
C65    C     0.03531   0.55869   0.23116   0.00000  Uiso   1.00
C66    C     0.01440   0.21144   0.38590   0.00000  Uiso   1.00
C67    C     0.06002   0.43205   0.31214   0.00000  Uiso   1.00
C68    C     0.18701   0.40871   0.75640   0.00000  Uiso   1.00
O69    O     0.20594   0.31915   0.65198   0.00000  Uiso   1.00
O70    O     0.12762   0.44066   0.89620   0.00000  Uiso   1.00
O71    O     0.06612   0.49007   0.55197   0.00000  Uiso   1.00
O72    O     0.14582   0.42488   0.61792   0.00000  Uiso   1.00
C73    C     0.03090   0.33586   0.51911   0.00000  Uiso   1.00
C74    C     0.41297   0.97711   0.06869   0.00000  Uiso   1.00
C75    C     0.25360   0.56494  -0.03545   0.00000  Uiso   1.00
C76    C     0.54511   1.02393   0.17562   0.00000  Uiso   1.00
C77    C     0.18436   0.77678   0.11049   0.00000  Uiso   1.00
O78    O     0.41694   1.07050   0.17929   0.00000  Uiso   1.00
C79    C     0.40139   1.21929   0.19633   0.00000  Uiso   1.00
C80    C     0.25837   1.05515   1.15321   0.00000  Uiso   1.00
C81    C     0.41133   1.17124   1.05244   0.00000  Uiso   1.00
O82    O     0.02533   0.57717   0.46313   0.00000  Uiso   1.00
O83    O     0.12738   0.58662   0.35049   0.00000  Uiso   1.00
O84    O     0.08374   0.74963   0.23957   0.00000  Uiso   1.00
O85    O     0.08924   0.70482   0.36937   0.00000  Uiso   1.00
O86    O     0.12570   0.85504   0.34271   0.00000  Uiso   1.00
O87    O     0.11637   0.55734   0.82602   0.00000  Uiso   1.00
C88    C     0.20732   0.47821   0.47281   0.00000  Uiso   1.00
C89    C     0.27994   0.70163   0.78444   0.00000  Uiso   1.00
C90    C     0.10720   0.68301   0.74753   0.00000  Uiso   1.00
C91    C     0.14514   0.70122   0.89547   0.00000  Uiso   1.00
C92    C     0.44133  -0.03856   0.54206   0.00000  Uiso   1.00
O93    O     0.17416  -0.07139   0.46265   0.00000  Uiso   1.00
C94    C     0.22074  -0.07315   0.60536   0.00000  Uiso   1.00
C95    C     0.29573   0.08319   0.50205   0.00000  Uiso   1.00
C96    C     0.11424   0.00277   0.56584   0.00000  Uiso   1.00
C97    C     0.26854   0.20865   0.65196   0.00000  Uiso   1.00
C98    C     0.18894  -0.07255   0.95517   0.00000  Uiso   1.00
C99    C     0.22017   0.09359   0.91320   0.00000  Uiso   1.00
C100   C     0.19887  -0.01575   0.79888   0.00000  Uiso   1.00
C101   C     0.51980   0.48819   0.19199   0.00000  Uiso   1.00
C102   C     0.55461   0.39434   0.08487   0.00000  Uiso   1.00
O103   O     0.17250   0.47985   0.12666   0.00000  Uiso   1.00
O104   O     0.19622   0.56478   0.23213   0.00000  Uiso   1.00
O105   O     0.54765   0.53465   0.04405   0.00000  Uiso   1.00
C106   C     0.59021   0.49920   0.90885   0.00000  Uiso   1.00
C107   C     0.32157   0.51113   0.19924   0.00000  Uiso   1.00
C108   C     0.76274   0.71024   0.23212   0.00000  Uiso   1.00
C109   C     0.69988   0.56837   0.33966   0.00000  Uiso   1.00
O110   O     0.34270   0.04105   0.87891   0.00000  Uiso   1.00
C111   C     0.43364   0.07497   0.74384   0.00000  Uiso   1.00
C112   C     0.44327   0.21091   0.84165   0.00000  Uiso   1.00
C113   C     0.53131   0.10852   0.88212   0.00000  Uiso   1.00
C114   C     0.32692   0.48961   0.63621   0.00000  Uiso   1.00
C115   C     0.33538   0.31911   0.96168   0.00000  Uiso   1.00
O116   O     0.43069   0.49120   0.94882   0.00000  Uiso   1.00
C117   C     0.40717   0.42750   0.81520   0.00000  Uiso   1.00
O118   O     0.27165   0.43165   0.90996   0.00000  Uiso   1.00
O119   O     0.30085   0.63398   0.11611   0.00000  Uiso   1.00
C120   C     0.56401   0.64395  -0.07077   0.00000  Uiso   1.00
C121   C     0.47958   0.67958   0.09248   0.00000  Uiso   1.00
O122   O     0.36835   0.91381   0.21256   0.00000  Uiso   1.00
C123   C     0.34345   0.95099   0.34962   0.00000  Uiso   1.00
O124   O     0.23314   0.80524   0.28804   0.00000  Uiso   1.00
O125   O     0.38834   0.73904   0.01254   0.00000  Uiso   1.00
C126   C     0.54908   0.88629  -0.01368   0.00000  Uiso   1.00
C127   C     0.38287   0.86431   0.92208   0.00000  Uiso   1.00
C128   C     0.33536   0.61221   0.35658   0.00000  Uiso   1.00
C129   C     0.89604   0.68120   0.30391   0.00000  Uiso   1.00
C130   C     0.52518   0.65024   0.31526   0.00000  Uiso   1.00
C131   C     0.44869   0.61384   0.47341   0.00000  Uiso   1.00
O132   O     0.19361   0.67916   0.45103   0.00000  Uiso   1.00
C133   C     0.25759   0.65859   0.58448   0.00000  Uiso   1.00
O134   O     0.31173   0.80658   0.50200   0.00000  Uiso   1.00
C135   C     0.14483   0.73657   0.56970   0.00000  Uiso   1.00
O136   O     0.39452   0.83125   0.31894   0.00000  Uiso   1.00
O137   O     0.47519   0.76252   0.38655   0.00000  Uiso   1.00
O138   O     0.46939   0.88273   0.42705   0.00000  Uiso   1.00
C139   C     0.75637   0.04311   0.07614   0.00000  Uiso   1.00
C140   C     0.86401   0.12775   0.19745   0.00000  Uiso   1.00
C141   C     0.56350   0.19077   0.46549   0.00000  Uiso   1.00
C142   C     0.52237   0.31814   0.38115   0.00000  Uiso   1.00
C143   C     0.46248  -0.19160   0.56432   0.00000  Uiso   1.00
C144   C     0.80118   0.14478   0.53025   0.00000  Uiso   1.00
C145   C     0.65637   0.13446   0.61920   0.00000  Uiso   1.00
C146   C     0.83837   0.40609   0.29133   0.00000  Uiso   1.00
O147   O     0.67564   0.30644   0.35622   0.00000  Uiso   1.00
C148   C     0.76444   0.21943   0.32019   0.00000  Uiso   1.00
O149   O     0.96532   0.20720   0.64108   0.00000  Uiso   1.00
O150   O     0.81950   0.20396   0.66924   0.00000  Uiso   1.00
C151   C     0.89244   0.16621   0.78635   0.00000  Uiso   1.00
C152   C     0.52949   0.18091   0.30944   0.00000  Uiso   1.00
C153   C     0.70394   0.30433  -0.01051   0.00000  Uiso   1.00
C154   C     0.85044   0.26563  -0.02283   0.00000  Uiso   1.00
C155   C     0.78053   0.27467   0.12355   0.00000  Uiso   1.00
O156   O     0.68292   0.54834   0.11389   0.00000  Uiso   1.00
C157   C     0.75285   0.44129   0.14185   0.00000  Uiso   1.00
O158   O     0.78960   0.57420   0.21015   0.00000  Uiso   1.00
O159   O     1.01548   0.49130   0.94402   0.00000  Uiso   1.00
O160   O     0.87300   0.42366   0.02280   0.00000  Uiso   1.00
C161   C     0.88926   0.53432   0.90305   0.00000  Uiso   1.00
O162   O     0.79721   0.29168   0.56506   0.00000  Uiso   1.00
O163   O     0.79444   0.31281   0.43182   0.00000  Uiso   1.00
C164   C     0.75249   0.41227   0.50592   0.00000  Uiso   1.00
O165   O     0.91457   0.42148   0.49606   0.00000  Uiso   1.00
C166   C     0.63051   0.29447   0.69468   0.00000  Uiso   1.00
C167   C     0.63626   0.44871   0.64439   0.00000  Uiso   1.00
C168   C     0.67658   0.41716   0.79552   0.00000  Uiso   1.00
C169   C     0.82203   0.32423   0.80665   0.00000  Uiso   1.00
O170   O     0.95333   0.32572   0.71671   0.00000  Uiso   1.00
O171   O     0.99448   0.40568   0.83116   0.00000  Uiso   1.00
O172   O     0.94157   0.52810   0.59189   0.00000  Uiso   1.00
O173   O     0.79517   0.43989   0.66970   0.00000  Uiso   1.00
O174   O     0.94186   0.46497   0.72183   0.00000  Uiso   1.00
O175   O     0.84935   0.59788   0.08295   0.00000  Uiso   1.00
O176   O     0.97868   0.58164   0.02644   0.00000  Uiso   1.00
O177   O     1.00459   0.68326   0.13020   0.00000  Uiso   1.00
C178   C     0.41107   0.78715   0.15218   0.00000  Uiso   1.00
C179   C     0.60993   0.81430   0.19953   0.00000  Uiso   1.00
O180   O     0.70415   0.98322   0.21987   0.00000  Uiso   1.00
O181   O     0.56508   0.90120   0.30717   0.00000  Uiso   1.00
C182   C     0.98706   0.78766   0.86899   0.00000  Uiso   1.00
O183   O     0.96311   0.71779   0.00552   0.00000  Uiso   1.00
C184   C     0.91795   0.84708  -0.00180   0.00000  Uiso   1.00
C185   C     0.84638   0.96411   0.16529   0.00000  Uiso   1.00
C186   C     1.06180   0.85477   0.13791   0.00000  Uiso   1.00
C187   C     0.81765   0.84902   0.38333   0.00000  Uiso   1.00
O188   O     0.70714   0.88359   0.31636   0.00000  Uiso   1.00
C189   C     0.65445   0.83423   0.46665   0.00000  Uiso   1.00
C190   C     0.81995   1.00137   0.40112   0.00000  Uiso   1.00
C191   C     0.78283   0.65295   0.72922   0.00000  Uiso   1.00
O192   O     0.89935   0.58511   0.69838   0.00000  Uiso   1.00
C193   C     0.83009   0.64934   0.58254   0.00000  Uiso   1.00
C194   C     0.96662   0.75970   0.67290   0.00000  Uiso   1.00
C195   C     0.48093   0.69574   0.75843   0.00000  Uiso   1.00
C196   C     0.63904   0.84046   0.82203   0.00000  Uiso   1.00
C197   C     0.81000   0.68427   0.93992   0.00000  Uiso   1.00
C198   C     0.51906   0.88529   0.76324   0.00000  Uiso   1.00
O199   O     0.47257   0.76826   0.88791   0.00000  Uiso   1.00
H200   H    -0.05878   0.76976   0.44516   0.00000  Uiso   1.00
H201   H    -0.00254   0.80554   0.52504   0.00000  Uiso   1.00
H202   H     0.01824   0.74078   0.47191   0.00000  Uiso   1.00
H203   H     0.94643   0.02685   0.69521   0.00000  Uiso   1.00
H204   H     0.92774  -0.00329   0.60387   0.00000  Uiso   1.00
H205   H     0.85335   0.02646   0.65604   0.00000  Uiso   1.00
H206   H    -0.03446   0.00811   0.29542   0.00000  Uiso   1.00
H207   H     0.05836   0.00043   0.24921   0.00000  Uiso   1.00
H208   H     0.06663   0.10074   0.25331   0.00000  Uiso   1.00
H209   H     0.23521   0.16626   0.35353   0.00000  Uiso   1.00
H210   H     0.22193   0.10711   0.28709   0.00000  Uiso   1.00
H211   H     0.24996   0.07417   0.36503   0.00000  Uiso   1.00
H212   H     0.09679   0.21902   0.79489   0.00000  Uiso   1.00
H213   H     0.21409   0.24539   0.79975   0.00000  Uiso   1.00
H214   H     0.13295   0.14055   0.79868   0.00000  Uiso   1.00
H215   H    -0.00879   0.38514   0.10204   0.00000  Uiso   1.00
H216   H    -0.00995   0.31187   0.17518   0.00000  Uiso   1.00
H217   H    -0.01471   0.28895   0.08060   0.00000  Uiso   1.00
H218   H     0.13500   0.25827   0.14959   0.00000  Uiso   1.00
H219   H     0.15950   0.33614   0.21016   0.00000  Uiso   1.00
H220   H     0.23765   0.34159   0.14413   0.00000  Uiso   1.00
H221   H     0.21979   0.21881   0.47856   0.00000  Uiso   1.00
H222   H     0.18480   0.28844   0.50532   0.00000  Uiso   1.00
H223   H     0.21679   0.28755   0.41856   0.00000  Uiso   1.00
H224   H    -0.01270   0.50625   0.20514   0.00000  Uiso   1.00
H225   H     0.07183   0.59870   0.18234   0.00000  Uiso   1.00
H226   H     0.00208   0.58825   0.25640   0.00000  Uiso   1.00
H227   H    -0.05663   0.18986   0.40231   0.00000  Uiso   1.00
H228   H     0.02770   0.19803   0.33257   0.00000  Uiso   1.00
H229   H     0.05186   0.27974   0.38395   0.00000  Uiso   1.00
H230   H     0.02333   0.42570   0.36356   0.00000  Uiso   1.00
H231   H     0.09905   0.39915   0.31752   0.00000  Uiso   1.00
H232   H     0.00840   0.39843   0.27874   0.00000  Uiso   1.00
H233   H     0.22758   0.46830   0.77602   0.00000  Uiso   1.00
H234   H     0.20111   0.36265   0.77959   0.00000  Uiso   1.00
H235   H     0.11787   0.38083   0.76787   0.00000  Uiso   1.00
H236   H     0.06702   0.29896   0.50971   0.00000  Uiso   1.00
H237   H    -0.00561   0.33680   0.47254   0.00000  Uiso   1.00
H238   H    -0.01157   0.31596   0.56702   0.00000  Uiso   1.00
H239   H     0.35784   0.98564   0.05406   0.00000  Uiso   1.00
H240   H     0.40733   0.91994   0.05417   0.00000  Uiso   1.00
H241   H     0.47389   1.02835   0.04037   0.00000  Uiso   1.00
H242   H     0.20385   0.57733  -0.00596   0.00000  Uiso   1.00
H243   H     0.27717   0.60230  -0.08785   0.00000  Uiso   1.00
H244   H     0.30549   0.58058  -0.00230   0.00000  Uiso   1.00
H245   H     0.59769   1.08577   0.14855   0.00000  Uiso   1.00
H246   H     0.55763   0.97141   0.16194   0.00000  Uiso   1.00
H247   H     0.55436   1.03058   0.22958   0.00000  Uiso   1.00
H248   H     0.23985   0.83334   0.12744   0.00000  Uiso   1.00
H249   H     0.17964   0.77307   0.05427   0.00000  Uiso   1.00
H250   H     0.19213   0.72430   0.13100   0.00000  Uiso   1.00
H251   H     0.37674   1.25303   0.16571   0.00000  Uiso   1.00
H252   H     0.47288   1.24549   0.19302   0.00000  Uiso   1.00
H253   H     0.36317   1.20162   0.25068   0.00000  Uiso   1.00
H254   H     0.24122   1.00846   1.11267   0.00000  Uiso   1.00
H255   H     0.22275   1.08900   1.14441   0.00000  Uiso   1.00
H256   H     0.23363   1.01867   1.20286   0.00000  Uiso   1.00
H257   H     0.48361   1.21478   1.05119   0.00000  Uiso   1.00
H258   H     0.37211   1.20309   1.03806   0.00000  Uiso   1.00
H259   H     0.41177   1.12746   1.01399   0.00000  Uiso   1.00
H260   H     0.23527   0.43225   0.46318   0.00000  Uiso   1.00
H261   H     0.25955   0.53480   0.49200   0.00000  Uiso   1.00
H262   H     0.18370   0.48344   0.42091   0.00000  Uiso   1.00
H263   H     0.28568   0.66582   0.74069   0.00000  Uiso   1.00
H264   H     0.31447   0.69243   0.82512   0.00000  Uiso   1.00
H265   H     0.31050   0.76675   0.77055   0.00000  Uiso   1.00
H266   H     0.14284   0.74681   0.72960   0.00000  Uiso   1.00
H267   H     0.04173   0.67033   0.76879   0.00000  Uiso   1.00
H268   H     0.09029   0.63887   0.70279   0.00000  Uiso   1.00
H269   H     0.16907   0.69008   0.94362   0.00000  Uiso   1.00
H270   H     0.07212   0.68294   0.90912   0.00000  Uiso   1.00
H271   H     0.18069   0.77058   0.88330   0.00000  Uiso   1.00
H272   H     0.40770  -0.00413   0.51859   0.00000  Uiso   1.00
H273   H     0.50999   0.00983   0.53701   0.00000  Uiso   1.00
H274   H     0.41599  -0.05705   0.59872   0.00000  Uiso   1.00
H275   H     0.25940  -0.03332   0.64182   0.00000  Uiso   1.00
H276   H     0.25567  -0.10621   0.58581   0.00000  Uiso   1.00
H277   H     0.15381  -0.11606   0.62961   0.00000  Uiso   1.00
H278   H     0.35326   0.07530   0.48018   0.00000  Uiso   1.00
H279   H     0.31374   0.12042   0.54743   0.00000  Uiso   1.00
H280   H     0.27959   0.12358   0.46408   0.00000  Uiso   1.00
H281   H     0.04906  -0.04550   0.54884   0.00000  Uiso   1.00
H282   H     0.13245   0.06709   0.54707   0.00000  Uiso   1.00
H283   H     0.11040   0.00154   0.62339   0.00000  Uiso   1.00
H284   H     0.32261   0.24554   0.68129   0.00000  Uiso   1.00
H285   H     0.28987   0.22668   0.59265   0.00000  Uiso   1.00
H286   H     0.24384   0.14408   0.66530   0.00000  Uiso   1.00
H287   H     0.13346  -0.06940   0.98084   0.00000  Uiso   1.00
H288   H     0.23575  -0.05415   0.99766   0.00000  Uiso   1.00
H289   H     0.17913  -0.13021   0.93740   0.00000  Uiso   1.00
H290   H     0.15203   0.07550   0.92489   0.00000  Uiso   1.00
H291   H     0.24561   0.14587   0.87030   0.00000  Uiso   1.00
H292   H     0.25584   0.11907   0.96244   0.00000  Uiso   1.00
H293   H     0.19635  -0.07502   0.78672   0.00000  Uiso   1.00
H294   H     0.23830   0.03140   0.75384   0.00000  Uiso   1.00
H295   H     0.12726  -0.02833   0.80131   0.00000  Uiso   1.00
H296   H     0.52344   0.54813   0.19859   0.00000  Uiso   1.00
H297   H     0.54229   0.46059   0.23919   0.00000  Uiso   1.00
H298   H     0.45057   0.44662   0.19506   0.00000  Uiso   1.00
H299   H     0.48349   0.36744   0.07746   0.00000  Uiso   1.00
H300   H     0.56318   0.35702   0.13205   0.00000  Uiso   1.00
H301   H     0.58724   0.39290   0.03594   0.00000  Uiso   1.00
H302   H     0.65361   0.51869   0.92680   0.00000  Uiso   1.00
H303   H     0.60312   0.52281   0.85059   0.00000  Uiso   1.00
H304   H     0.55339   0.43225   0.91547   0.00000  Uiso   1.00
H305   H     0.29032   0.46780   0.24713   0.00000  Uiso   1.00
H306   H     0.37642   0.55743   0.21935   0.00000  Uiso   1.00
H307   H     0.33694   0.48527   0.15223   0.00000  Uiso   1.00
H308   H     0.74601   0.73858   0.27677   0.00000  Uiso   1.00
H309   H     0.70057   0.68113   0.20683   0.00000  Uiso   1.00
H310   H     0.80847   0.74889   0.19055   0.00000  Uiso   1.00
H311   H     0.71374   0.60462   0.38593   0.00000  Uiso   1.00
H312   H     0.69986   0.51028   0.36346   0.00000  Uiso   1.00
H313   H     0.63908   0.55152   0.31796   0.00000  Uiso   1.00
H314   H     0.43625   0.01660   0.74019   0.00000  Uiso   1.00
H315   H     0.48632   0.12656   0.71119   0.00000  Uiso   1.00
H316   H     0.37275   0.06917   0.72890   0.00000  Uiso   1.00
H317   H     0.43689   0.21970   0.89856   0.00000  Uiso   1.00
H318   H     0.38949   0.20912   0.81516   0.00000  Uiso   1.00
H319   H     0.50727   0.25732   0.81704   0.00000  Uiso   1.00
H320   H     0.54923   0.15085   0.92459   0.00000  Uiso   1.00
H321   H     0.59297   0.12542   0.84680   0.00000  Uiso   1.00
H322   H     0.50992   0.04498   0.90587   0.00000  Uiso   1.00
H323   H     0.33155   0.55125   0.63508   0.00000  Uiso   1.00
H324   H     0.34847   0.47844   0.58796   0.00000  Uiso   1.00
H325   H     0.36728   0.48708   0.67508   0.00000  Uiso   1.00
H326   H     0.27935   0.26472   0.94214   0.00000  Uiso   1.00
H327   H     0.32403   0.32758   1.01883   0.00000  Uiso   1.00
H328   H     0.40003   0.31890   0.95123   0.00000  Uiso   1.00
H329   H     0.36462   0.38705   0.77929   0.00000  Uiso   1.00
H330   H     0.45618   0.40711   0.81781   0.00000  Uiso   1.00
H331   H     0.43289   0.48928   0.78538   0.00000  Uiso   1.00
H332   H     0.62926   0.68621  -0.05610   0.00000  Uiso   1.00
H333   H     0.51308   0.66091  -0.05285   0.00000  Uiso   1.00
H334   H     0.57388   0.65061  -0.12822   0.00000  Uiso   1.00
H335   H     0.54548   0.72423   0.06436   0.00000  Uiso   1.00
H336   H     0.45903   0.62683   0.06061   0.00000  Uiso   1.00
H337   H     0.48558   0.65750   0.14468   0.00000  Uiso   1.00
H338   H     0.41469   0.98671   0.35593   0.00000  Uiso   1.00
H339   H     0.30796   0.92848   0.39987   0.00000  Uiso   1.00
H340   H     0.31724   0.98989   0.32445   0.00000  Uiso   1.00
H341   H     0.58700   0.85651   0.00647   0.00000  Uiso   1.00
H342   H     0.52839   0.91075   0.03248   0.00000  Uiso   1.00
H343   H     0.58082   0.93228  -0.06104   0.00000  Uiso   1.00
H344   H     0.34205   0.82991   0.88240   0.00000  Uiso   1.00
H345   H     0.42646   0.92697   0.90006   0.00000  Uiso   1.00
H346   H     0.33609   0.86896   0.96288   0.00000  Uiso   1.00
H347   H     0.33326   0.63850   0.30474   0.00000  Uiso   1.00
H348   H     0.29466   0.63259   0.39173   0.00000  Uiso   1.00
H349   H     0.31494   0.54818   0.35236   0.00000  Uiso   1.00
H350   H     0.93275   0.64809   0.29009   0.00000  Uiso   1.00
H351   H     0.88359   0.68536   0.36116   0.00000  Uiso   1.00
H352   H     0.93909   0.74700   0.27986   0.00000  Uiso   1.00
H353   H     0.50787   0.65397   0.26089   0.00000  Uiso   1.00
H354   H     0.51360   0.58564   0.32295   0.00000  Uiso   1.00
H355   H     0.59378   0.69561   0.31844   0.00000  Uiso   1.00
H356   H     0.42887   0.63855   0.51903   0.00000  Uiso   1.00
H357   H     0.51552   0.62328   0.47788   0.00000  Uiso   1.00
H358   H     0.39982   0.54725   0.47065   0.00000  Uiso   1.00
H359   H     0.30341   0.63963   0.55630   0.00000  Uiso   1.00
H360   H     0.19676   0.60412   0.61262   0.00000  Uiso   1.00
H361   H     0.28538   0.69341   0.62732   0.00000  Uiso   1.00
H362   H     0.08688   0.67775   0.58324   0.00000  Uiso   1.00
H363   H     0.13325   0.77768   0.53433   0.00000  Uiso   1.00
H364   H     0.17269   0.76633   0.61780   0.00000  Uiso   1.00
H365   H     0.70556   0.06152   0.08161   0.00000  Uiso   1.00
H366   H     0.72707  -0.01142   0.05189   0.00000  Uiso   1.00
H367   H     0.81910   0.08459   0.04184   0.00000  Uiso   1.00
H368   H     0.92354   0.15922   0.15977   0.00000  Uiso   1.00
H369   H     0.88704   0.11622   0.24666   0.00000  Uiso   1.00
H370   H     0.83322   0.16685   0.19962   0.00000  Uiso   1.00
H371   H     0.59584   0.15253   0.45708   0.00000  Uiso   1.00
H372   H     0.49365   0.15291   0.47625   0.00000  Uiso   1.00
H373   H     0.59353   0.23827   0.50362   0.00000  Uiso   1.00
H374   H     0.53766   0.35612   0.33117   0.00000  Uiso   1.00
H375   H     0.54333   0.35715   0.42557   0.00000  Uiso   1.00
H376   H     0.44445   0.27981   0.39191   0.00000  Uiso   1.00
H377   H     0.45209  -0.24717   0.53824   0.00000  Uiso   1.00
H378   H     0.42532  -0.21125   0.61533   0.00000  Uiso   1.00
H379   H     0.53295  -0.15358   0.57633   0.00000  Uiso   1.00
H380   H     0.85444   0.18627   0.49189   0.00000  Uiso   1.00
H381   H     0.73982   0.11539   0.50472   0.00000  Uiso   1.00
H382   H     0.80817   0.09783   0.56076   0.00000  Uiso   1.00
H383   H     0.61686   0.15314   0.58193   0.00000  Uiso   1.00
H384   H     0.63613   0.13771   0.67609   0.00000  Uiso   1.00
H385   H     0.63771   0.07091   0.61393   0.00000  Uiso   1.00
H386   H     0.80194   0.44194   0.29416   0.00000  Uiso   1.00
H387   H     0.83629   0.38385   0.23910   0.00000  Uiso   1.00
H388   H     0.90762   0.44305   0.30208   0.00000  Uiso   1.00
H389   H     0.72138   0.20131   0.27239   0.00000  Uiso   1.00
H390   H     0.75092   0.17297   0.36730   0.00000  Uiso   1.00
H391   H     0.83376   0.23969   0.29435   0.00000  Uiso   1.00
H392   H     0.85037   0.17231   0.82994   0.00000  Uiso   1.00
H393   H     0.96119   0.18998   0.80284   0.00000  Uiso   1.00
H394   H     0.86211   0.09931   0.77870   0.00000  Uiso   1.00
H395   H     0.56387   0.21106   0.25452   0.00000  Uiso   1.00
H396   H     0.46204   0.16031   0.30994   0.00000  Uiso   1.00
H397   H     0.53444   0.12614   0.32092   0.00000  Uiso   1.00
H398   H     0.65501   0.29060   0.03305   0.00000  Uiso   1.00
H399   H     0.67685   0.24635  -0.03813   0.00000  Uiso   1.00
H400   H     0.71036   0.34854  -0.05375   0.00000  Uiso   1.00
H401   H     0.89983   0.30654  -0.07103   0.00000  Uiso   1.00
H402   H     0.80101   0.20945  -0.04088   0.00000  Uiso   1.00
H403   H     0.88478   0.24575   0.01222   0.00000  Uiso   1.00
H404   H     0.83716   0.29276   0.15640   0.00000  Uiso   1.00
H405   H     0.74242   0.20754   0.11842   0.00000  Uiso   1.00
H406   H     0.73587   0.28982   0.15148   0.00000  Uiso   1.00
H407   H     0.81898   0.44437   0.13954   0.00000  Uiso   1.00
H408   H     0.71775   0.41026   0.09581   0.00000  Uiso   1.00
H409   H     0.70892   0.40483   0.18824   0.00000  Uiso   1.00
H410   H     0.92127   0.60220   0.90065   0.00000  Uiso   1.00
H411   H     0.81535   0.50299   0.91745   0.00000  Uiso   1.00
H412   H     0.90477   0.51499   0.85116   0.00000  Uiso   1.00
H413   H     0.75264   0.43772   0.45137   0.00000  Uiso   1.00
H414   H     0.79120   0.46828   0.53517   0.00000  Uiso   1.00
H415   H     0.68237   0.37220   0.52577   0.00000  Uiso   1.00
H416   H     0.63889   0.25767   0.73906   0.00000  Uiso   1.00
H417   H     0.65189   0.27937   0.64658   0.00000  Uiso   1.00
H418   H     0.56660   0.28016   0.69291   0.00000  Uiso   1.00
H419   H     0.64373   0.50535   0.66350   0.00000  Uiso   1.00
H420   H     0.56683   0.40614   0.65654   0.00000  Uiso   1.00
H421   H     0.66164   0.45541   0.58816   0.00000  Uiso   1.00
H422   H     0.73286   0.47442   0.81059   0.00000  Uiso   1.00
H423   H     0.67133   0.36430   0.83348   0.00000  Uiso   1.00
H424   H     0.61761   0.42275   0.80358   0.00000  Uiso   1.00
H425   H     0.80043   0.36072   0.83767   0.00000  Uiso   1.00
H426   H     0.81336   0.27183   0.83936   0.00000  Uiso   1.00
H427   H     0.78172   0.30393   0.76071   0.00000  Uiso   1.00
H428   H     0.36066   0.80343   0.14331   0.00000  Uiso   1.00
H429   H     0.47684   0.84234   0.14060   0.00000  Uiso   1.00
H430   H     0.40502   0.76088   0.20602   0.00000  Uiso   1.00
H431   H     0.63235   0.76782   0.20741   0.00000  Uiso   1.00
H432   H     0.64214   0.85054   0.15067   0.00000  Uiso   1.00
H433   H     0.53829   0.77942   0.20342   0.00000  Uiso   1.00
H434   H     1.05840   0.82073   0.87481   0.00000  Uiso   1.00
H435   H     0.97281   0.82488   0.83112   0.00000  Uiso   1.00
H436   H     0.97215   0.73406   0.84248   0.00000  Uiso   1.00
H437   H     0.98251   0.88985   0.01341   0.00000  Uiso   1.00
H438   H     0.86839   0.82116   0.04159   0.00000  Uiso   1.00
H439   H     0.90280   0.88294  -0.04174   0.00000  Uiso   1.00
H440   H     0.85004   0.93917   0.22139   0.00000  Uiso   1.00
H441   H     0.90944   1.00331   0.13263   0.00000  Uiso   1.00
H442   H     0.80844   0.90593   0.13856   0.00000  Uiso   1.00
H443   H     1.09739   0.88809   0.08827   0.00000  Uiso   1.00
H444   H     1.08227   0.89094   0.18301   0.00000  Uiso   1.00
H445   H     0.98975   0.83032   0.13286   0.00000  Uiso   1.00
H446   H     0.87459   0.87314   0.41436   0.00000  Uiso   1.00
H447   H     0.85009   0.87208   0.32502   0.00000  Uiso   1.00
H448   H     0.77475   0.78276   0.38648   0.00000  Uiso   1.00
H449   H     0.68340   0.85681   0.51704   0.00000  Uiso   1.00
H450   H     0.62442   0.76873   0.46581   0.00000  Uiso   1.00
H451   H     0.60777   0.85787   0.45746   0.00000  Uiso   1.00
H452   H     0.83366   1.00241   0.45813   0.00000  Uiso   1.00
H453   H     0.78354   1.03718   0.39054   0.00000  Uiso   1.00
H454   H     0.88646   1.02966   0.37277   0.00000  Uiso   1.00
H455   H     0.80409   0.66816   0.78298   0.00000  Uiso   1.00
H456   H     0.72769   0.58641   0.73545   0.00000  Uiso   1.00
H457   H     0.75651   0.68946   0.70682   0.00000  Uiso   1.00
H458   H     0.76885   0.59240   0.58780   0.00000  Uiso   1.00
H459   H     0.87200   0.65092   0.53779   0.00000  Uiso   1.00
H460   H     0.81102   0.69573   0.57305   0.00000  Uiso   1.00
H461   H     0.98844   0.76509   0.72687   0.00000  Uiso   1.00
H462   H     0.95554   0.80599   0.64552   0.00000  Uiso   1.00
H463   H     1.02035   0.76063   0.64237   0.00000  Uiso   1.00
H464   H     0.53488   0.69544   0.72648   0.00000  Uiso   1.00
H465   H     0.43905   0.69535   0.71831   0.00000  Uiso   1.00
H466   H     0.44777   0.64347   0.79780   0.00000  Uiso   1.00
H467   H     0.67118   0.88370   0.77724   0.00000  Uiso   1.00
H468   H     0.66007   0.79330   0.82472   0.00000  Uiso   1.00
H469   H     0.65573   0.87781   0.86747   0.00000  Uiso   1.00
H470   H     0.78790   0.71797   0.90465   0.00000  Uiso   1.00
H471   H     0.76350   0.65916   0.98882   0.00000  Uiso   1.00
H472   H     0.80672   0.63242   0.91223   0.00000  Uiso   1.00
H473   H     0.56463   0.94389   0.78525   0.00000  Uiso   1.00
H474   H     0.45373   0.87289   0.77685   0.00000  Uiso   1.00
H475   H     0.53411   0.88459   0.70762   0.00000  Uiso   1.00
loop_
_geom_bond_atom_site_label_1
_geom_bond_atom_site_label_2
_geom_bond_distance
_geom_bond_site_symmetry_2
_ccdc_geom_bond_type
Si1    O55     1.618   .     S
Si1    O93     1.612   .     S
Si1    C52     1.915   1_545 S
Si1    O86     1.629   1_545 S
Si2    O57     1.594   .     S
Si2    O62     1.624   .     S
Si2    C53     1.860   1_455 S
Si2    O149    1.653   1_455 S
Si3    C54     1.817   .     S
Si3    O55     1.566   .     S
Si3    C56     1.885   .     S
Si3    O63     1.610   .     S
Si4    O57     1.587   .     S
Si4    C58     1.882   .     S
Si4    O69     1.618   .     S
Si4    C97     1.829   .     S
Si5    C59     1.861   .     S
Si5    C60     1.839   .     S
Si5    O61     1.613   .     S
Si5    O103    1.623   .     S
Si6    O61     1.516   .     S
Si6    C75     1.924   .     S
Si6    O70     1.587   1_554 S
Si6    O118    1.576   1_554 S
Si7    O62     1.598   .     S
Si7    O63     1.599   .     S
Si7    C64     1.911   .     S
Si7    C66     1.937   .     S
Si8    O71     1.630   .     S
Si8    O82     1.582   .     S
Si8    O165    1.624   1_455 S
Si8    O172    1.653   1_455 S
Si9    C65     1.786   .     S
Si9    C67     1.806   .     S
Si9    O83     1.581   .     S
Si9    O104    1.605   .     S
Si10   C68     1.841   .     S
Si10   O69     1.607   .     S
Si10   O72     1.583   .     S
Si10   C114    1.897   .     S
Si11   O70     1.595   .     S
Si11   O87     1.590   .     S
Si11   O159    1.617   1_455 S
Si11   O171    1.601   1_455 S
Si12   O71     1.596   .     S
Si12   O72     1.596   .     S
Si12   C73     1.846   .     S
Si12   C88     1.860   .     S
Si13   C74     1.888   .     S
Si13   C76     1.848   .     S
Si13   O78     1.544   .     S
Si13   O122    1.588   .     S
Si14   C77     1.887   .     S
Si14   O84     1.593   .     S
Si14   O177    1.605   1_455 S
Si14   C186    1.862   1_455 S
Si15   O78     1.570   .     S
Si15   C79     1.909   .     S
Si15   C80     1.853   1_554 S
Si15   C81     1.906   1_554 S
Si16   O82     1.613   .     S
Si16   O83     1.629   .     S
Si16   O85     1.574   .     S
Si16   O132    1.615   .     S
Si17   O84     1.595   .     S
Si17   O85     1.607   .     S
Si17   O86     1.585   .     S
Si17   O124    1.641   .     S
Si18   O87     1.597   .     S
Si18   C89     1.871   .     S
Si18   C90     1.836   .     S
Si18   C91     1.858   .     S
Si19   C92     1.872   .     S
Si19   C143    1.905   .     S
Si19   O134    1.653   1_545 S
Si19   O138    1.609   1_545 S
Si20   O93     1.594   .     S
Si20   C94     1.869   .     S
Si20   C95     1.856   .     S
Si20   C96     1.841   .     S
Si21   C98     1.811   .     S
Si21   C99     1.893   .     S
Si21   C100    1.803   .     S
Si21   O110    1.573   .     S
Si22   C101    1.861   .     S
Si22   C102    1.780   .     S
Si22   O105    1.650   .     S
Si22   O156    1.585   .     S
Si23   O103    1.581   .     S
Si23   O104    1.586   .     S
Si23   C107    1.938   .     S
Si23   O119    1.593   .     S
Si24   O105    1.600   .     S
Si24   C120    1.795   .     S
Si24   C106    1.846   1_554 S
Si24   O116    1.593   1_554 S
Si25   C108    1.836   .     S
Si25   C109    1.867   .     S
Si25   C129    1.835   .     S
Si25   O158    1.596   .     S
Si26   O110    1.624   .     S
Si26   C111    1.867   .     S
Si26   C112    1.905   .     S
Si26   C113    1.919   .     S
Si27   C115    1.925   .     S
Si27   O116    1.581   .     S
Si27   C117    1.911   .     S
Si27   O118    1.636   .     S
Si28   O119    1.554   .     S
Si28   C121    1.837   .     S
Si28   O125    1.605   .     S
Si28   C178    1.833   .     S
Si29   O122    1.582   .     S
Si29   C123    1.881   .     S
Si29   O124    1.616   .     S
Si29   O136    1.626   .     S
Si30   O125    1.573   .     S
Si30   C126    1.897   .     S
Si30   C127    1.928   1_554 S
Si30   O199    1.605   1_554 S
Si31   C128    1.834   .     S
Si31   C130    1.915   .     S
Si31   C131    1.940   .     S
Si31   O137    1.668   .     S
Si32   O132    1.598   .     S
Si32   C133    1.886   .     S
Si32   O134    1.569   .     S
Si32   C135    1.809   .     S
Si33   O136    1.538   .     S
Si33   O137    1.607   .     S
Si33   O138    1.592   .     S
Si33   O181    1.592   .     S
Si34   C139    1.845   .     S
Si34   C140    1.827   .     S
Si34   O180    1.617   1_545 S
Si34   C185    1.912   1_545 S
Si35   C141    1.885   .     S
Si35   C142    1.886   .     S
Si35   O147    1.580   .     S
Si35   C152    1.824   .     S
Si36   C144    1.880   .     S
Si36   C145    1.874   .     S
Si36   O150    1.563   .     S
Si36   O162    1.615   .     S
Si37   C146    1.866   .     S
Si37   O147    1.607   .     S
Si37   C148    1.831   .     S
Si37   O163    1.571   .     S
Si38   O149    1.597   .     S
Si38   O150    1.587   .     S
Si38   C151    1.916   .     S
Si38   O170    1.642   .     S
Si39   C153    1.904   .     S
Si39   C154    1.900   .     S
Si39   C155    1.910   .     S
Si39   O160    1.596   .     S
Si40   O156    1.611   .     S
Si40   C157    1.780   .     S
Si40   O158    1.566   .     S
Si40   O175    1.547   .     S
Si41   O160    1.580   .     S
Si41   O176    1.639   .     S
Si41   O159    1.568   1_554 S
Si41   C161    1.876   1_554 S
Si42   O162    1.586   .     S
Si42   O163    1.561   .     S
Si42   C164    1.806   .     S
Si42   O165    1.577   .     S
Si43   C166    1.912   .     S
Si43   C167    1.851   .     S
Si43   C168    1.888   .     S
Si43   O173    1.586   .     S
Si44   C169    1.830   .     S
Si44   O170    1.627   .     S
Si44   O171    1.599   .     S
Si44   O174    1.622   .     S
Si45   O172    1.620   .     S
Si45   O173    1.565   .     S
Si45   O174    1.613   .     S
Si45   O192    1.628   .     S
Si46   O175    1.558   .     S
Si46   O176    1.653   .     S
Si46   O177    1.634   .     S
Si46   O183    1.605   .     S
Si47   C179    1.930   .     S
Si47   O180    1.603   .     S
Si47   O181    1.607   .     S
Si47   O188    1.585   .     S
Si48   O183    1.574   .     S
Si48   C184    1.905   .     S
Si48   C182    1.844   1_554 S
Si48   C197    1.847   1_554 S
Si49   C187    1.762   .     S
Si49   O188    1.566   .     S
Si49   C189    1.952   .     S
Si49   C190    1.868   .     S
Si50   C191    1.883   .     S
Si50   O192    1.642   .     S
Si50   C193    1.871   .     S
Si50   C194    1.835   .     S
Si51   C195    1.924   .     S
Si51   C196    1.836   .     S
Si51   C198    1.919   .     S
Si51   O199    1.624   .     S
C52    H200    1.072   .     S
C52    H201    1.135   .     S
C52    H202    1.098   .     S
C52    Si1     1.915   1_565 S
C53    H203    1.090   .     S
C53    H204    1.162   .     S
C53    H205    1.139   .     S
C53    Si2     1.860   1_655 S
C54    H206    1.149   .     S
C54    H207    1.114   .     S
C54    H208    1.133   .     S
C56    H209    1.110   .     S
C56    H210    1.055   .     S
C56    H211    1.117   .     S
C58    H212    1.118   .     S
C58    H213    1.124   .     S
C58    H214    1.128   .     S
C59    H215    1.175   .     S
C59    H216    1.115   .     S
C59    H217    1.110   .     S
C60    H218    1.152   .     S
C60    H219    1.081   .     S
C60    H220    1.118   .     S
C64    H221    1.059   .     S
C64    H222    1.071   .     S
C64    H223    1.099   .     S
C65    H224    1.111   .     S
C65    H225    1.106   .     S
C65    H226    1.080   .     S
C66    H227    1.128   .     S
C66    H228    1.094   .     S
C66    H229    1.119   .     S
C67    H230    1.104   .     S
C67    H231    1.116   .     S
C67    H232    1.091   .     S
C68    H233    1.100   .     S
C68    H234    1.075   .     S
C68    H235    1.071   .     S
O70    Si6     1.587   1_556 S
C73    H236    1.145   .     S
C73    H237    1.124   .     S
C73    H238    1.067   .     S
C74    H239    1.097   .     S
C74    H240    1.074   .     S
C74    H241    1.118   .     S
C75    H242    1.127   .     S
C75    H243    1.115   .     S
C75    H244    1.070   .     S
C76    H245    1.146   .     S
C76    H246    1.137   .     S
C76    H247    1.051   .     S
C77    H248    1.126   .     S
C77    H249    1.078   .     S
C77    H250    1.099   .     S
C79    H251    1.076   .     S
C79    H252    1.105   .     S
C79    H253    1.136   .     S
C80    H254    1.138   .     S
C80    H255    1.087   .     S
C80    H256    1.066   .     S
C80    Si15    1.853   1_556 S
C81    H257    1.135   .     S
C81    H258    1.132   .     S
C81    H259    1.126   .     S
C81    Si15    1.906   1_556 S
O86    Si1     1.629   1_565 S
C88    H260    1.184   .     S
C88    H261    1.120   .     S
C88    H262    1.106   .     S
C89    H263    1.122   .     S
C89    H264    1.061   .     S
C89    H265    1.076   .     S
C90    H266    1.070   .     S
C90    H267    1.100   .     S
C90    H268    1.168   .     S
C91    H269    1.076   .     S
C91    H270    1.165   .     S
C91    H271    1.139   .     S
C92    H272    1.143   .     S
C92    H273    1.106   .     S
C92    H274    1.108   .     S
C94    H275    1.062   .     S
C94    H276    1.114   .     S
C94    H277    1.112   .     S
C95    H278    1.142   .     S
C95    H279    1.102   .     S
C95    H280    1.150   .     S
C96    H281    1.151   .     S
C96    H282    1.112   .     S
C96    H283    1.088   .     S
C97    H284    1.082   .     S
C97    H285    1.143   .     S
C97    H286    1.075   .     S
C98    H287    1.088   .     S
C98    H288    1.133   .     S
C98    H289    1.081   .     S
C99    H290    1.080   .     S
C99    H291    1.124   .     S
C99    H292    1.153   .     S
C100   H293    1.120   .     S
C100   H294    1.118   .     S
C100   H295    1.159   .     S
C101   H296    1.101   .     S
C101   H297    1.182   .     S
C101   H298    1.084   .     S
C102   H299    1.124   .     S
C102   H300    1.160   .     S
C102   H301    1.069   .     S
C106   H302    1.077   .     S
C106   H303    1.134   .     S
C106   H304    1.095   .     S
C106   Si24    1.846   1_556 S
C107   H305    1.102   .     S
C107   H306    1.055   .     S
C107   H307    1.114   .     S
C108   H308    1.117   .     S
C108   H309    1.116   .     S
C108   H310    1.048   .     S
C109   H311    1.106   .     S
C109   H312    1.146   .     S
C109   H313    1.074   .     S
C111   H314    1.113   .     S
C111   H315    1.089   .     S
C111   H316    1.076   .     S
C112   H317    1.108   .     S
C112   H318    1.080   .     S
C112   H319    1.095   .     S
C113   H320    1.113   .     S
C113   H321    1.133   .     S
C113   H322    1.114   .     S
C114   H323    1.109   .     S
C114   H324    1.038   .     S
C114   H325    1.065   .     S
C115   H326    1.130   .     S
C115   H327    1.124   .     S
C115   H328    1.139   .     S
O116   Si24    1.593   1_556 S
C117   H329    1.085   .     S
C117   H330    1.091   .     S
C117   H331    1.118   .     S
O118   Si6     1.576   1_556 S
C120   H332    1.104   .     S
C120   H333    1.118   .     S
C120   H334    1.084   .     S
C121   H335    1.131   .     S
C121   H336    1.104   .     S
C121   H337    1.079   .     S
C123   H338    1.122   .     S
C123   H339    1.053   .     S
C123   H340    1.122   .     S
C126   H341    1.115   .     S
C126   H342    1.126   .     S
C126   H343    1.119   .     S
C127   H344    1.085   .     S
C127   H345    1.088   .     S
C127   H346    1.129   .     S
C127   Si30    1.928   1_556 S
C128   H347    1.083   .     S
C128   H348    1.150   .     S
C128   H349    1.080   .     S
C129   H350    1.109   .     S
C129   H351    1.109   .     S
C129   H352    1.140   .     S
C130   H353    1.099   .     S
C130   H354    1.119   .     S
C130   H355    1.104   .     S
C131   H356    1.114   .     S
C131   H357    1.107   .     S
C131   H358    1.133   .     S
C133   H359    1.136   .     S
C133   H360    1.140   .     S
C133   H361    1.062   .     S
O134   Si19    1.653   1_565 S
C135   H362    1.088   .     S
C135   H363    1.085   .     S
C135   H364    1.111   .     S
O138   Si19    1.609   1_565 S
C139   H365    1.094   .     S
C139   H366    1.047   .     S
C139   H367    1.133   .     S
C140   H368    1.108   .     S
C140   H369    1.087   .     S
C140   H370    1.090   .     S
C141   H371    1.110   .     S
C141   H372    1.085   .     S
C141   H373    1.123   .     S
C142   H374    1.088   .     S
C142   H375    1.108   .     S
C142   H376    1.202   .     S
C143   H377    1.113   .     S
C143   H378    1.074   .     S
C143   H379    1.142   .     S
C144   H380    1.083   .     S
C144   H381    1.108   .     S
C144   H382    1.078   .     S
C145   H383    1.163   .     S
C145   H384    1.130   .     S
C145   H385    1.081   .     S
C146   H386    1.119   .     S
C146   H387    1.091   .     S
C146   H388    1.116   .     S
C148   H389    1.175   .     S
C148   H390    1.138   .     S
C148   H391    1.154   .     S
O149   Si2     1.653   1_655 S
C151   H392    1.120   .     S
C151   H393    1.141   .     S
C151   H394    1.122   .     S
C152   H395    1.141   .     S
C152   H396    1.055   .     S
C152   H397    1.073   .     S
C153   H398    1.080   .     S
C153   H399    1.130   .     S
C153   H400    1.089   .     S
C154   H401    1.170   .     S
C154   H402    1.088   .     S
C154   H403    1.080   .     S
C155   H404    1.126   .     S
C155   H405    1.119   .     S
C155   H406    1.071   .     S
C157   H407    1.129   .     S
C157   H408    1.123   .     S
C157   H409    1.089   .     S
O159   Si11    1.617   1_655 S
O159   Si41    1.568   1_556 S
C161   H410    1.111   .     S
C161   H411    1.148   .     S
C161   H412    1.128   .     S
C161   Si41    1.876   1_556 S
C164   H413    1.112   .     S
C164   H414    1.140   .     S
C164   H415    1.121   .     S
O165   Si8     1.624   1_655 S
C166   H416    1.114   .     S
C166   H417    1.067   .     S
C166   H418    1.024   .     S
C167   H419    1.085   .     S
C167   H420    1.094   .     S
C167   H421    1.108   .     S
C168   H422    1.126   .     S
C168   H423    1.148   .     S
C168   H424    1.088   .     S
C169   H425    1.100   .     S
C169   H426    1.066   .     S
C169   H427    1.123   .     S
O171   Si11    1.601   1_655 S
O172   Si8     1.653   1_655 S
O177   Si14    1.605   1_655 S
C178   H428    1.077   .     S
C178   H429    1.122   .     S
C178   H430    1.083   .     S
C179   H431    1.111   .     S
C179   H432    1.067   .     S
C179   H433    1.103   .     S
O180   Si34    1.617   1_565 S
C182   H434    1.119   .     S
C182   H435    1.087   .     S
C182   H436    1.069   .     S
C182   Si48    1.844   1_556 S
C184   H437    1.101   .     S
C184   H438    1.067   .     S
C184   H439    1.104   .     S
C185   H440    1.153   .     S
C185   H441    1.115   .     S
C185   H442    1.139   .     S
C185   Si34    1.912   1_565 S
C186   H443    1.076   .     S
C186   H444    1.090   .     S
C186   H445    1.134   .     S
C186   Si14    1.862   1_655 S
C187   H446    1.105   .     S
C187   H447    1.171   .     S
C187   H448    1.096   .     S
C189   H449    1.118   .     S
C189   H450    1.078   .     S
C189   H451    1.112   .     S
C190   H452    1.121   .     S
C190   H453    1.135   .     S
C190   H454    1.113   .     S
C191   H455    1.113   .     S
C191   H456    1.150   .     S
C191   H457    1.066   .     S
C193   H458    1.090   .     S
C193   H459    1.078   .     S
C193   H460    1.071   .     S
C194   H461    1.107   .     S
C194   H462    1.079   .     S
C194   H463    1.067   .     S
C195   H464    1.094   .     S
C195   H465    1.085   .     S
C195   H466    1.083   .     S
C196   H467    1.060   .     S
C196   H468    1.099   .     S
C196   H469    1.104   .     S
C197   H470    1.095   .     S
C197   H471    1.115   .     S
C197   H472    1.104   .     S
C197   Si48    1.847   1_556 S
C198   H473    1.128   .     S
C198   H474    1.066   .     S
C198   H475    1.074   .     S
O199   Si30    1.605   1_556 S
