data_333-9-11-16-15-30-19
_audit_creation_date              2025-03-07
_audit_creation_method            'Materials Studio'
_symmetry_space_group_name_H-M    'P1'
_symmetry_Int_Tables_number       1
_symmetry_cell_setting            triclinic
loop_
_symmetry_equiv_pos_as_xyz
  x,y,z
_cell_length_a                    16.5278
_cell_length_b                    18.5141
_cell_length_c                    18.9626
_cell_angle_alpha                 91.7637
_cell_angle_beta                  86.1368
_cell_angle_gamma                 126.9486
loop_
_atom_site_label
_atom_site_type_symbol
_atom_site_fract_x
_atom_site_fract_y
_atom_site_fract_z
_atom_site_U_iso_or_equiv
_atom_site_adp_type
_atom_site_occupancy
Si1    Si    0.18305  -0.08040   0.11052   0.00000  Uiso   1.00
Si2    Si   -0.11860   0.14071   0.18583   0.00000  Uiso   1.00
Si3    Si    0.12945   0.21304  -0.05030   0.00000  Uiso   1.00
Si4    Si    0.00067   0.21487   0.56108   0.00000  Uiso   1.00
Si5    Si    0.10969   0.02916   0.69665   0.00000  Uiso   1.00
Si6    Si   -0.01609   0.19080   0.84521   0.00000  Uiso   1.00
Si7    Si    0.15238   0.19659   0.63257   0.00000  Uiso   1.00
Si8    Si    0.02790   0.54851   0.58377   0.00000  Uiso   1.00
Si9    Si    0.15868   0.32065   0.74574   0.00000  Uiso   1.00
Si10   Si   -0.04120   0.50298   0.89235   0.00000  Uiso   1.00
Si11   Si    0.13201   0.96868   0.24718   0.00000  Uiso   1.00
Si12   Si    0.24244   0.63205   0.26273   0.00000  Uiso   1.00
Si13   Si    0.14204   0.68910   0.81501   0.00000  Uiso   1.00
Si14   Si    0.35287   0.22497   0.58144   0.00000  Uiso   1.00
Si15   Si    0.58953   0.22824   0.43833   0.00000  Uiso   1.00
Si16   Si    0.46895   0.04191   0.74767   0.00000  Uiso   1.00
Si17   Si    0.45866   0.19940   0.70500   0.00000  Uiso   1.00
Si18   Si    0.49916   0.29191   0.23777   0.00000  Uiso   1.00
Si19   Si    0.34215   0.39131   0.36948   0.00000  Uiso   1.00
Si20   Si    0.45832   0.39580   0.14107   0.00000  Uiso   1.00
Si21   Si    0.55748   0.37151   0.49678   0.00000  Uiso   1.00
Si22   Si    0.48772   0.64033   0.53832   0.00000  Uiso   1.00
Si23   Si    0.58108   0.50078   0.38150   0.00000  Uiso   1.00
Si24   Si    0.17622   0.59431   0.11150   0.00000  Uiso   1.00
Si25   Si    0.48453   0.73268  -0.12828   0.00000  Uiso   1.00
Si26   Si    0.60184   0.67582   0.39796   0.00000  Uiso   1.00
Si27   Si    0.37387   0.89460   0.47748   0.00000  Uiso   1.00
Si28   Si    0.29062   0.89618   0.85702   0.00000  Uiso   1.00
Si29   Si    0.46484   0.93758   0.61918   0.00000  Uiso   1.00
Si30   Si    0.77397   0.03471   0.05035   0.00000  Uiso   1.00
Si31   Si    0.65627   0.17584   0.30749   0.00000  Uiso   1.00
Si32   Si    0.81413   0.17515  -0.06431   0.00000  Uiso   1.00
Si33   Si    0.87988   0.07468   0.44559   0.00000  Uiso   1.00
Si34   Si    0.82737   0.16635   0.33842   0.00000  Uiso   1.00
Si35   Si    0.81519   0.06140   0.74973   0.00000  Uiso   1.00
Si36   Si    0.66129   0.17502   0.84376   0.00000  Uiso   1.00
Si37   Si    0.86025   0.22350   0.67525   0.00000  Uiso   1.00
Si38   Si    0.69364   0.47298   0.25745   0.00000  Uiso   1.00
Si39   Si    0.78423   0.46417   0.00803   0.00000  Uiso   1.00
Si40   Si    0.70405   0.49331   0.60415   0.00000  Uiso   1.00
Si41   Si    0.88178   0.54090   0.33000   0.00000  Uiso   1.00
Si42   Si    0.84808   0.35357   0.77325   0.00000  Uiso   1.00
Si43   Si    0.55557   0.38588   1.00542   0.00000  Uiso   1.00
Si44   Si    0.86507   0.50615   0.69312   0.00000  Uiso   1.00
Si45   Si    0.77957   0.58691   0.12009   0.00000  Uiso   1.00
Si46   Si    0.57369   0.87533   0.11613   0.00000  Uiso   1.00
Si47   Si    0.83763   0.91596   0.02676   0.00000  Uiso   1.00
Si48   Si    0.83302   0.69378   0.55857   0.00000  Uiso   1.00
Si49   Si    0.73056   0.88162   0.39676   0.00000  Uiso   1.00
Si50   Si    0.84378   0.62286   0.80441   0.00000  Uiso   1.00
Si51   Si    0.68512   0.79098   0.91939   0.00000  Uiso   1.00
C52    C     0.28884  -0.07877   0.14364   0.00000  Uiso   1.00
C53    C     0.10958   0.81838   0.05506   0.00000  Uiso   1.00
C54    C    -0.03179   0.10732   0.19595   0.00000  Uiso   1.00
C55    C    -0.03263   0.26430   0.16616   0.00000  Uiso   1.00
C56    C     0.22564   0.02319   0.05800   0.00000  Uiso   1.00
C57    C     0.08426   0.16024   0.03835   0.00000  Uiso   1.00
C58    C     0.18246   0.33393  -0.03999   0.00000  Uiso   1.00
C59    C     0.22878   0.20056   0.92194   0.00000  Uiso   1.00
C60    C     0.06434   0.31531   0.50242   0.00000  Uiso   1.00
C61    C     0.18066   0.09562   0.77384   0.00000  Uiso   1.00
C62    C    -0.01875   0.94451   0.73428   0.00000  Uiso   1.00
C63    C     0.17571   0.98547   0.65458   0.00000  Uiso   1.00
O64    O     0.04026   0.16949   0.89718   0.00000  Uiso   1.00
O65    O     0.08372   0.19984   0.57839   0.00000  Uiso   1.00
O66    O     0.10364   0.09534   0.65137   0.00000  Uiso   1.00
C67    C     0.12902   0.54223   0.60686   0.00000  Uiso   1.00
C68    C     0.06734   0.64615   0.53413   0.00000  Uiso   1.00
C69    C     0.93565   0.45069   0.52879   0.00000  Uiso   1.00
O70    O     0.05903   0.27421   0.79433   0.00000  Uiso   1.00
O71    O     0.15049   0.24143   0.70314   0.00000  Uiso   1.00
C72    C     0.17242   0.40157   0.68203   0.00000  Uiso   1.00
C73    C     0.28689   0.39263   0.79623   0.00000  Uiso   1.00
C74    C     0.03059   0.48340   0.94866   0.00000  Uiso   1.00
O75    O     0.12237   0.91296   0.18107   0.00000  Uiso   1.00
C76    C     1.16708   1.07446   0.21480   0.00000  Uiso   1.00
C77    C     0.22324   0.98296   0.30697   0.00000  Uiso   1.00
C78    C     0.15572   0.51491   0.28864   0.00000  Uiso   1.00
C79    C     0.36957   0.67912   0.28197   0.00000  Uiso   1.00
C80    C     0.19512   0.69860   0.29895   0.00000  Uiso   1.00
O81    O     0.03876   0.61074   0.85867   0.00000  Uiso   1.00
C82    C     0.20246   0.62835   0.79723   0.00000  Uiso   1.00
C83    C     0.11927   0.73075   0.73322   0.00000  Uiso   1.00
C84    C     0.29401   0.13003   0.51909   0.00000  Uiso   1.00
O85    O     0.26603   0.23820   0.60473   0.00000  Uiso   1.00
C86    C     0.50939   0.12651   0.49423   0.00000  Uiso   1.00
C87    C     0.71290   0.29155   0.47122   0.00000  Uiso   1.00
O88    O     0.38712   0.19106   0.64376   0.00000  Uiso   1.00
O89    O     0.43065   0.10490   0.73583   0.00000  Uiso   1.00
C90    C     0.44918   0.25523   0.78713   0.00000  Uiso   1.00
C91    C     0.59271   0.26092   0.67283   0.00000  Uiso   1.00
C92    C     0.41442   0.22395   0.31712   0.00000  Uiso   1.00
C93    C     0.50505   0.22017   0.17301   0.00000  Uiso   1.00
C94    C     0.29750   0.34368   0.46048   0.00000  Uiso   1.00
C95    C     0.25646   0.29448   0.31100   0.00000  Uiso   1.00
C96    C     0.31437   0.47688   0.36194   0.00000  Uiso   1.00
O97    O     0.45051   0.33251   0.20111   0.00000  Uiso   1.00
C98    C     0.48582   0.50294   0.17432   0.00000  Uiso   1.00
C99    C     0.32812   0.32895   1.10370   0.00000  Uiso   1.00
O100   O     0.44911   0.31954   0.54053   0.00000  Uiso   1.00
O101   O     0.55616   0.29685   0.44876   0.00000  Uiso   1.00
C102   C     0.50056   0.55181   0.56596   0.00000  Uiso   1.00
C103   C     0.56218   0.74369   0.59282   0.00000  Uiso   1.00
C104   C     0.35423   0.59968   0.55613   0.00000  Uiso   1.00
O105   O     0.46707   0.44368   0.35387   0.00000  Uiso   1.00
O106   O     0.57755   0.45141   0.44980   0.00000  Uiso   1.00
C107   C     0.17328   0.49365   0.07774   0.00000  Uiso   1.00
C108   C     0.24553   0.68995   0.04293   0.00000  Uiso   1.00
C109   C     0.04770   0.56305   0.12595   0.00000  Uiso   1.00
O110   O     0.24015   0.63151   0.18037   0.00000  Uiso   1.00
C111   C     0.39664   0.62229  -0.08421   0.00000  Uiso   1.00
C112   C     0.43260   0.79527  -0.10242   0.00000  Uiso   1.00
O113   O     0.51819   0.65639   0.45438   0.00000  Uiso   1.00
O114   O     0.62025   0.60133   0.40468   0.00000  Uiso   1.00
C115   C     0.55999   0.66973   0.30954   0.00000  Uiso   1.00
C116   C     0.34259   0.77981   0.47997   0.00000  Uiso   1.00
C117   C     0.46516   0.95819   0.39835   0.00000  Uiso   1.00
C118   C     0.25415   0.88564   0.46291   0.00000  Uiso   1.00
O119   O     0.22072   0.78397   0.85470   0.00000  Uiso   1.00
C120   C     0.35902   0.94085   0.94103   0.00000  Uiso   1.00
C121   C     0.49178   0.72037   0.77236   0.00000  Uiso   1.00
O122   O     0.37935   0.94862   0.79357   0.00000  Uiso   1.00
C123   C     0.21172   0.93662   0.85834   0.00000  Uiso   1.00
O124   O     0.40872   0.93629   0.55282   0.00000  Uiso   1.00
C125   C     0.37692   0.82638   0.66491   0.00000  Uiso   1.00
O126   O     0.48647   1.01421   0.67276   0.00000  Uiso   1.00
O127   O     0.80549   0.09008   0.12459   0.00000  Uiso   1.00
C128   C     0.57825   0.07750   0.24987   0.00000  Uiso   1.00
C129   C     0.73756   0.27170   0.24526   0.00000  Uiso   1.00
O130   O     0.58787   0.19283   0.36063   0.00000  Uiso   1.00
O131   O     0.92118   0.21571   0.89192   0.00000  Uiso   1.00
O132   O     0.78256   0.08891  -0.01693   0.00000  Uiso   1.00
C133   C     0.83629   0.26319  -0.00423   0.00000  Uiso   1.00
O134   O     0.90970   0.12689   0.52071   0.00000  Uiso   1.00
C135   C     1.00062   1.11569   0.39732   0.00000  Uiso   1.00
O136   O     0.82294   0.12158   0.26137   0.00000  Uiso   1.00
O137   O     0.72882   0.16278   0.34838   0.00000  Uiso   1.00
O138   O     0.82055   0.10315   0.39991   0.00000  Uiso   1.00
C139   C     0.94012   0.29214   0.34445   0.00000  Uiso   1.00
O140   O     0.90702   0.10539   0.79829   0.00000  Uiso   1.00
C141   C     0.81640   1.00131   0.66775   0.00000  Uiso   1.00
O142   O     0.57466   0.10000   0.78816   0.00000  Uiso   1.00
O143   O     0.72293   0.14822   0.88378   0.00000  Uiso   1.00
C144   C     0.58957   0.19000   0.91679   0.00000  Uiso   1.00
O145   O     0.95605   0.23735   0.62882   0.00000  Uiso   1.00
C146   C     0.76579   0.21042   0.61392   0.00000  Uiso   1.00
O147   O     0.80862   0.13927   0.72533   0.00000  Uiso   1.00
O148   O     0.61106   0.36885   0.25492   0.00000  Uiso   1.00
O149   O     0.65999   0.51337   0.31941   0.00000  Uiso   1.00
O150   O     0.86339   0.49073   0.93897   0.00000  Uiso   1.00
C151   C     0.77040   0.38379   0.06741   0.00000  Uiso   1.00
O152   O     0.64236   0.41445   0.55066   0.00000  Uiso   1.00
C153   C     0.60513   0.47795   0.66885   0.00000  Uiso   1.00
C154   C     0.94579   0.48943   0.33445   0.00000  Uiso   1.00
O155   O     0.79924   0.49697   0.27398   0.00000  Uiso   1.00
C156   C     0.82314   0.52854   0.42142   0.00000  Uiso   1.00
O157   O     0.74089   0.27507   0.80819   0.00000  Uiso   1.00
O158   O     0.89562   0.30933   0.72584   0.00000  Uiso   1.00
O159   O     0.92358   0.42717   0.82983   0.00000  Uiso   1.00
C160   C     0.46716   0.25710   1.00397   0.00000  Uiso   1.00
O161   O     0.67235   0.42591   0.98526   0.00000  Uiso   1.00
O162   O     0.54040   0.41459   1.08161   0.00000  Uiso   1.00
O163   O     0.96780   0.55309   0.65160   0.00000  Uiso   1.00
O164   O     0.78215   0.48798   0.64455   0.00000  Uiso   1.00
O165   O     0.83324   0.41043   0.72290   0.00000  Uiso   1.00
O166   O     0.70461   0.51422   0.18175   0.00000  Uiso   1.00
O167   O     0.82183   0.54906   0.06320   0.00000  Uiso   1.00
C168   C     0.88793   0.68784   0.16275   0.00000  Uiso   1.00
C169   C     1.00650   0.90224   0.29701   0.00000  Uiso   1.00
C170   C     0.47436   0.89161   0.11532   0.00000  Uiso   1.00
C171   C     0.52086   0.76446   0.08229   0.00000  Uiso   1.00
O172   O     0.66070   0.94523   0.06103   0.00000  Uiso   1.00
C173   C     0.60730   0.89070   0.20914   0.00000  Uiso   1.00
C174   C     0.94528   0.93632   0.97010   0.00000  Uiso   1.00
C175   C     0.72081   0.62946   0.07498   0.00000  Uiso   1.00
C176   C     0.84040   0.88045   0.11752   0.00000  Uiso   1.00
O177   O     0.84432   1.00421   0.02927   0.00000  Uiso   1.00
O178   O     0.76117   0.58225   0.56192   0.00000  Uiso   1.00
C179   C     0.97433   0.66435   0.31391   0.00000  Uiso   1.00
C180   C     0.86400   0.72740   0.46368   0.00000  Uiso   1.00
C181   C     0.76549   0.74025   0.59387   0.00000  Uiso   1.00
C182   C     0.95127   0.74983   0.60052   0.00000  Uiso   1.00
O183   O     0.69813   0.78189   0.41282   0.00000  Uiso   1.00
C184   C     0.61270   0.87535   0.39074   0.00000  Uiso   1.00
O185   O     0.80377   0.96399   0.45178   0.00000  Uiso   1.00
C186   C     0.78372   0.91255   0.30754   0.00000  Uiso   1.00
C187   C     0.59061   0.95836   0.58712   0.00000  Uiso   1.00
C188   C     0.50514   0.42660   0.94149   0.00000  Uiso   1.00
C189   C     0.71665   0.52841   0.84841   0.00000  Uiso   1.00
O190   O     0.88277   0.57589   0.75520   0.00000  Uiso   1.00
C191   C     0.82106   0.68983   0.74962   0.00000  Uiso   1.00
C192   C     0.92927   0.70107   0.87644   0.00000  Uiso   1.00
C193   C     0.64988   0.67394   0.92298   0.00000  Uiso   1.00
O194   O     0.73371   0.83986   0.98949   0.00000  Uiso   1.00
C195   C     0.78001   0.85625   0.84331   0.00000  Uiso   1.00
C196   C     0.68718   0.97064   0.79484   0.00000  Uiso   1.00
O197   O     0.59020   0.78970   0.90757   0.00000  Uiso   1.00
H198   H     0.33743  -0.01882   0.16970   0.00000  Uiso   1.00
H199   H     0.33586  -0.07942   0.10252   0.00000  Uiso   1.00
H200   H     0.26051  -0.13918   0.17488   0.00000  Uiso   1.00
H201   H     0.04725   0.81769   0.04763   0.00000  Uiso   1.00
H202   H     0.07778   0.75097   0.08184   0.00000  Uiso   1.00
H203   H     0.15076   0.81918   0.00525   0.00000  Uiso   1.00
H204   H     0.05128   0.17507   0.19530   0.00000  Uiso   1.00
H205   H    -0.04775   0.06127   0.15145   0.00000  Uiso   1.00
H206   H    -0.04385   0.07977   0.24878   0.00000  Uiso   1.00
H207   H     0.01526   0.30469   0.21191   0.00000  Uiso   1.00
H208   H    -0.08235   0.28207   0.15419   0.00000  Uiso   1.00
H209   H     0.02219   0.27682   0.12066   0.00000  Uiso   1.00
H210   H     0.25847   0.02230   0.00364   0.00000  Uiso   1.00
H211   H     0.28636   0.07986   0.08904   0.00000  Uiso   1.00
H212   H     0.16391   0.02803   0.05526   0.00000  Uiso   1.00
H213   H     0.00709   0.13786   0.03931   0.00000  Uiso   1.00
H214   H     0.12253   0.21730   0.07553   0.00000  Uiso   1.00
H215   H     0.09031   0.10581   0.05220   0.00000  Uiso   1.00
H216   H     0.14666   0.34972  -0.08044   0.00000  Uiso   1.00
H217   H     0.26383   0.38142  -0.05346   0.00000  Uiso   1.00
H218   H     0.16836   0.34881   0.01354   0.00000  Uiso   1.00
H219   H     0.26610   0.23425   0.87071   0.00000  Uiso   1.00
H220   H     0.19602   0.13018   0.92145   0.00000  Uiso   1.00
H221   H     0.28316   0.23676   0.96031   0.00000  Uiso   1.00
H222   H     0.14608   0.37286   0.51787   0.00000  Uiso   1.00
H223   H     0.01991   0.33900   0.51155   0.00000  Uiso   1.00
H224   H     0.06580   0.30670   0.44836   0.00000  Uiso   1.00
H225   H     0.12192   0.08368   0.81470   0.00000  Uiso   1.00
H226   H     0.23372   0.16244   0.75925   0.00000  Uiso   1.00
H227   H     0.22586   0.07553   0.79393   0.00000  Uiso   1.00
H228   H    -0.01045   0.91025   0.77855   0.00000  Uiso   1.00
H229   H    -0.07100   0.89489   0.69782   0.00000  Uiso   1.00
H230   H    -0.05274   0.97969   0.75783   0.00000  Uiso   1.00
H231   H     0.14881   0.96286   0.60143   0.00000  Uiso   1.00
H232   H     0.16172   0.93129   0.68859   0.00000  Uiso   1.00
H233   H     0.26057   1.03668   0.64889   0.00000  Uiso   1.00
H234   H     0.19582   0.61003   0.62382   0.00000  Uiso   1.00
H235   H     0.15289   0.52410   0.55923   0.00000  Uiso   1.00
H236   H     0.09804   0.49026   0.64676   0.00000  Uiso   1.00
H237   H    -0.00273   0.64446   0.53374   0.00000  Uiso   1.00
H238   H     0.08784   0.64603   0.47798   0.00000  Uiso   1.00
H239   H     0.12145   0.71028   0.55730   0.00000  Uiso   1.00
H240   H     0.91841   0.38739   0.55071   0.00000  Uiso   1.00
H241   H     0.97178   0.46118   0.47389   0.00000  Uiso   1.00
H242   H     0.86436   0.44471   0.52997   0.00000  Uiso   1.00
H243   H     0.17142   0.45652   0.70550   0.00000  Uiso   1.00
H244   H     0.11667   0.36305   0.64567   0.00000  Uiso   1.00
H245   H     0.24915   0.43765   0.65291   0.00000  Uiso   1.00
H246   H     0.35202   0.41919   0.75617   0.00000  Uiso   1.00
H247   H     0.29305   0.35228   0.83595   0.00000  Uiso   1.00
H248   H     0.29192   0.44664   0.82063   0.00000  Uiso   1.00
H249   H     0.02479   0.42870   0.91653   0.00000  Uiso   1.00
H250   H    -0.02158   0.44564   0.99827   0.00000  Uiso   1.00
H251   H     0.11183   0.54415   0.94935   0.00000  Uiso   1.00
H252   H     1.11817   1.06326   0.17566   0.00000  Uiso   1.00
H253   H     1.24608   1.12067   0.19034   0.00000  Uiso   1.00
H254   H     1.16294   1.11569   0.25514   0.00000  Uiso   1.00
H255   H     0.30210   1.02455   0.28085   0.00000  Uiso   1.00
H256   H     0.20618   0.91811   0.31867   0.00000  Uiso   1.00
H257   H     0.22147   1.02376   0.35204   0.00000  Uiso   1.00
H258   H     0.09075   0.47821   0.25206   0.00000  Uiso   1.00
H259   H     0.13100   0.51158   0.34480   0.00000  Uiso   1.00
H260   H     0.19583   0.48135   0.28205   0.00000  Uiso   1.00
H261   H     0.39292   0.63949   0.25375   0.00000  Uiso   1.00
H262   H     0.38488   0.68654   0.33853   0.00000  Uiso   1.00
H263   H     0.41765   0.74628   0.25898   0.00000  Uiso   1.00
H264   H     0.19173   0.69726   0.35866   0.00000  Uiso   1.00
H265   H     0.11957   0.65683   0.28001   0.00000  Uiso   1.00
H266   H     0.22953   0.76624   0.28159   0.00000  Uiso   1.00
H267   H     0.26642   0.66613   0.75790   0.00000  Uiso   1.00
H268   H     0.14356   0.56489   0.77222   0.00000  Uiso   1.00
H269   H     0.22161   0.61523   0.84919   0.00000  Uiso   1.00
H270   H     0.05265   0.72896   0.73250   0.00000  Uiso   1.00
H271   H     0.12222   0.69006   0.69005   0.00000  Uiso   1.00
H272   H     0.17869   0.80415   0.72701   0.00000  Uiso   1.00
H273   H     0.21396   0.08718   0.53257   0.00000  Uiso   1.00
H274   H     0.32637   0.09254   0.52362   0.00000  Uiso   1.00
H275   H     0.30354   0.15689   0.46402   0.00000  Uiso   1.00
H276   H     0.49843   0.14871   0.54884   0.00000  Uiso   1.00
H277   H     0.55176   0.09893   0.50214   0.00000  Uiso   1.00
H278   H     0.43761   0.08009   0.47162   0.00000  Uiso   1.00
H279   H     0.72086   0.32014   0.52446   0.00000  Uiso   1.00
H280   H     0.76817   0.33965   0.42571   0.00000  Uiso   1.00
H281   H     0.73113   0.24291   0.47386   0.00000  Uiso   1.00
H282   H     0.43467   0.30395   0.77568   0.00000  Uiso   1.00
H283   H     0.51911   0.28867   0.81237   0.00000  Uiso   1.00
H284   H     0.38081   0.19770   0.82151   0.00000  Uiso   1.00
H285   H     0.62634   0.33611   0.67351   0.00000  Uiso   1.00
H286   H     0.60498   0.24324   0.61928   0.00000  Uiso   1.00
H287   H     0.63117   0.24382   0.70602   0.00000  Uiso   1.00
H288   H     0.32980   0.17382   0.31158   0.00000  Uiso   1.00
H289   H     0.42378   0.26926   0.36625   0.00000  Uiso   1.00
H290   H     0.42547   0.17383   0.33445   0.00000  Uiso   1.00
H291   H     0.51804   0.17471   0.19647   0.00000  Uiso   1.00
H292   H     0.55956   0.26062   0.12876   0.00000  Uiso   1.00
H293   H     0.42890   0.17219   0.15291   0.00000  Uiso   1.00
H294   H     0.33099   0.39765   0.50110   0.00000  Uiso   1.00
H295   H     0.31359   0.29190   0.46835   0.00000  Uiso   1.00
H296   H     0.21591   0.30426   0.47001   0.00000  Uiso   1.00
H297   H     0.17646   0.27380   0.31922   0.00000  Uiso   1.00
H298   H     0.25339   0.23859   0.33522   0.00000  Uiso   1.00
H299   H     0.28447   0.30815   0.25892   0.00000  Uiso   1.00
H300   H     0.36261   0.53715   0.39406   0.00000  Uiso   1.00
H301   H     0.23147   0.43967   0.37702   0.00000  Uiso   1.00
H302   H     0.33526   0.49569   0.30357   0.00000  Uiso   1.00
H303   H     0.55873   0.53715   0.19834   0.00000  Uiso   1.00
H304   H     0.42666   0.48635   0.21206   0.00000  Uiso   1.00
H305   H     0.48496   0.54189   0.13033   0.00000  Uiso   1.00
H306   H     0.27298   0.32517   1.14308   0.00000  Uiso   1.00
H307   H     0.30415   0.25953   1.08708   0.00000  Uiso   1.00
H308   H     0.33352   0.36221   1.05541   0.00000  Uiso   1.00
H309   H     0.58500   0.58663   0.57025   0.00000  Uiso   1.00
H310   H     0.47488   0.49695   0.52619   0.00000  Uiso   1.00
H311   H     0.45628   0.52229   0.61733   0.00000  Uiso   1.00
H312   H     0.62331   0.79903   0.55979   0.00000  Uiso   1.00
H313   H     0.59959   0.73577   0.63532   0.00000  Uiso   1.00
H314   H     0.51066   0.76070   0.61621   0.00000  Uiso   1.00
H315   H     0.29679   0.54338   0.52202   0.00000  Uiso   1.00
H316   H     0.35243   0.65781   0.54845   0.00000  Uiso   1.00
H317   H     0.33522   0.57853   0.61097   0.00000  Uiso   1.00
H318   H     0.20718   0.47713   0.11678   0.00000  Uiso   1.00
H319   H     0.22564   0.51708   0.03117   0.00000  Uiso   1.00
H320   H     0.09514   0.43307   0.07040   0.00000  Uiso   1.00
H321   H     0.26606   0.75427   0.07055   0.00000  Uiso   1.00
H322   H     0.19183   0.67132   0.00019   0.00000  Uiso   1.00
H323   H     0.31997   0.70567   0.02405   0.00000  Uiso   1.00
H324   H    -0.00268   0.49130   0.14247   0.00000  Uiso   1.00
H325   H     0.02961   0.57622   0.07670   0.00000  Uiso   1.00
H326   H     0.05510   0.61301   0.16548   0.00000  Uiso   1.00
H327   H     0.41884   0.57726  -0.09946   0.00000  Uiso   1.00
H328   H     0.32630   0.58324  -0.11161   0.00000  Uiso   1.00
H329   H     0.39262   0.63094  -0.02765   0.00000  Uiso   1.00
H330   H     0.45173   0.84265  -0.14515   0.00000  Uiso   1.00
H331   H     0.47108   0.83252  -0.05395   0.00000  Uiso   1.00
H332   H     0.35188   0.74797  -0.09662   0.00000  Uiso   1.00
H333   H     0.48247   0.60313   0.30640   0.00000  Uiso   1.00
H334   H     0.60771   0.66529   0.26816   0.00000  Uiso   1.00
H335   H     0.55094   0.72346   0.30555   0.00000  Uiso   1.00
H336   H     0.28654   0.73642   0.52146   0.00000  Uiso   1.00
H337   H     0.41267   0.78631   0.48195   0.00000  Uiso   1.00
H338   H     0.30368   0.74061   0.43136   0.00000  Uiso   1.00
H339   H     0.45581   0.91133   0.35781   0.00000  Uiso   1.00
H340   H     0.54391   0.99522   0.41532   0.00000  Uiso   1.00
H341   H     0.46682   1.01249   0.37710   0.00000  Uiso   1.00
H342   H     0.27263   0.94432   0.43546   0.00000  Uiso   1.00
H343   H     0.21602   0.87495   0.51440   0.00000  Uiso   1.00
H344   H     0.20120   0.82611   0.43354   0.00000  Uiso   1.00
H345   H     0.37643   1.00767   0.95850   0.00000  Uiso   1.00
H346   H     0.42732   0.95141   0.92620   0.00000  Uiso   1.00
H347   H     0.32092   0.88927   0.97798   0.00000  Uiso   1.00
H348   H     0.41494   0.67817   0.75409   0.00000  Uiso   1.00
H349   H     0.54280   0.70193   0.75779   0.00000  Uiso   1.00
H350   H     0.53243   0.78709   0.74501   0.00000  Uiso   1.00
H351   H     0.15507   0.91116   0.90512   0.00000  Uiso   1.00
H352   H     0.17146   0.92757   0.80663   0.00000  Uiso   1.00
H353   H     0.25823   1.00827   0.86838   0.00000  Uiso   1.00
H354   H     0.38567   0.78141   0.63198   0.00000  Uiso   1.00
H355   H     0.30105   0.80423   0.65256   0.00000  Uiso   1.00
H356   H     0.39849   0.83614   0.72204   0.00000  Uiso   1.00
H357   H     0.60839   0.10019   0.19562   0.00000  Uiso   1.00
H358   H     0.50251   0.05899   0.25495   0.00000  Uiso   1.00
H359   H     0.58708   0.02094   0.25907   0.00000  Uiso   1.00
H360   H     0.68819   0.27438   0.21075   0.00000  Uiso   1.00
H361   H     0.78760   0.25972   0.21464   0.00000  Uiso   1.00
H362   H     0.78501   0.33820   0.27288   0.00000  Uiso   1.00
H363   H     0.83314   0.31106  -0.03623   0.00000  Uiso   1.00
H364   H     0.90894   0.29925   0.01960   0.00000  Uiso   1.00
H365   H     0.77951   0.23521   0.04701   0.00000  Uiso   1.00
H366   H     0.98714   1.05356   0.37743   0.00000  Uiso   1.00
H367   H     1.05989   1.14289   0.43471   0.00000  Uiso   1.00
H368   H     1.02599   1.16169   0.35207   0.00000  Uiso   1.00
H369   H     0.93280   0.32795   0.30391   0.00000  Uiso   1.00
H370   H     1.01633   0.30792   0.33409   0.00000  Uiso   1.00
H371   H     0.93215   0.31759   0.39280   0.00000  Uiso   1.00
H372   H     0.77742   1.00877   0.63103   0.00000  Uiso   1.00
H373   H     0.77585   0.92558   0.67943   0.00000  Uiso   1.00
H374   H     0.89425   1.03588   0.64547   0.00000  Uiso   1.00
H375   H     0.63066   0.26671   0.92439   0.00000  Uiso   1.00
H376   H     0.58534   0.15181   0.96064   0.00000  Uiso   1.00
H377   H     0.50974   0.15240   0.90285   0.00000  Uiso   1.00
H378   H     0.76546   0.18253   0.56146   0.00000  Uiso   1.00
H379   H     0.77368   0.27400   0.61010   0.00000  Uiso   1.00
H380   H     0.68670   0.16307   0.63729   0.00000  Uiso   1.00
H381   H     0.74076   0.39088   0.11988   0.00000  Uiso   1.00
H382   H     0.84974   0.40725   0.07688   0.00000  Uiso   1.00
H383   H     0.71422   0.31824   0.04691   0.00000  Uiso   1.00
H384   H     0.60143   0.43408   0.70501   0.00000  Uiso   1.00
H385   H     0.52964   0.44818   0.64982   0.00000  Uiso   1.00
H386   H     0.62420   0.54067   0.69431   0.00000  Uiso   1.00
H387   H     0.96632   0.48424   0.27793   0.00000  Uiso   1.00
H388   H     0.89793   0.42336   0.36168   0.00000  Uiso   1.00
H389   H     1.01341   0.53812   0.36379   0.00000  Uiso   1.00
H390   H     0.77610   0.55421   0.43266   0.00000  Uiso   1.00
H391   H     0.88720   0.56363   0.45456   0.00000  Uiso   1.00
H392   H     0.76790   0.45498   0.43725   0.00000  Uiso   1.00
H393   H     0.39705   0.21924   1.03687   0.00000  Uiso   1.00
H394   H     0.51767   0.24034   1.01554   0.00000  Uiso   1.00
H395   H     0.44104   0.23343   0.95073   0.00000  Uiso   1.00
H396   H     0.92944   0.75702   0.13470   0.00000  Uiso   1.00
H397   H     0.94376   0.67523   0.16374   0.00000  Uiso   1.00
H398   H     0.87454   0.69905   0.21940   0.00000  Uiso   1.00
H399   H     0.98882   0.94342   0.32671   0.00000  Uiso   1.00
H400   H     1.01643   0.86512   0.33873   0.00000  Uiso   1.00
H401   H     0.94464   0.85548   0.25932   0.00000  Uiso   1.00
H402   H     0.42056   0.85548   0.16260   0.00000  Uiso   1.00
H403   H     0.43904   0.86396   0.06348   0.00000  Uiso   1.00
H404   H     0.50659   0.96130   0.11972   0.00000  Uiso   1.00
H405   H     0.44522   0.71972   0.10908   0.00000  Uiso   1.00
H406   H     0.56384   0.73768   0.09047   0.00000  Uiso   1.00
H407   H     0.50809   0.76885   0.02778   0.00000  Uiso   1.00
H408   H     0.54325   0.87791   0.24035   0.00000  Uiso   1.00
H409   H     0.67683   0.95838   0.22342   0.00000  Uiso   1.00
H410   H     0.61654   0.83387   0.21607   0.00000  Uiso   1.00
H411   H     0.95899   0.98184   0.92887   0.00000  Uiso   1.00
H412   H     0.91630   0.86948   0.94144   0.00000  Uiso   1.00
H413   H     1.02036   0.96862   0.99271   0.00000  Uiso   1.00
H414   H     0.66398   0.57619   0.04415   0.00000  Uiso   1.00
H415   H     0.77788   0.68860   0.04237   0.00000  Uiso   1.00
H416   H     0.69019   0.65491   0.11504   0.00000  Uiso   1.00
H417   H     0.80733   0.91016   0.15112   0.00000  Uiso   1.00
H418   H     0.92058   0.91695   0.13602   0.00000  Uiso   1.00
H419   H     0.79133   0.80421   0.12489   0.00000  Uiso   1.00
H420   H     1.02945   0.69792   0.35667   0.00000  Uiso   1.00
H421   H     0.93485   0.69171   0.32325   0.00000  Uiso   1.00
H422   H     1.01593   0.68136   0.26290   0.00000  Uiso   1.00
H423   H     0.79904   0.70405   0.43583   0.00000  Uiso   1.00
H424   H     0.92054   0.71711   0.44143   0.00000  Uiso   1.00
H425   H     0.90685   0.80250   0.45945   0.00000  Uiso   1.00
H426   H     0.71440   0.70655   0.64277   0.00000  Uiso   1.00
H427   H     0.72039   0.73050   0.55152   0.00000  Uiso   1.00
H428   H     0.82004   0.81252   0.60289   0.00000  Uiso   1.00
H429   H     0.94350   0.69670   0.63241   0.00000  Uiso   1.00
H430   H     0.97112   0.80984   0.63329   0.00000  Uiso   1.00
H431   H     1.01183   0.77569   0.55423   0.00000  Uiso   1.00
H432   H     0.54879   0.81000   0.37479   0.00000  Uiso   1.00
H433   H     0.63018   0.93314   0.35912   0.00000  Uiso   1.00
H434   H     0.58998   0.88537   0.44564   0.00000  Uiso   1.00
H435   H     0.74886   0.84957   0.27284   0.00000  Uiso   1.00
H436   H     0.86338   0.94358   0.30813   0.00000  Uiso   1.00
H437   H     0.77348   0.96110   0.28733   0.00000  Uiso   1.00
H438   H     0.63874   0.97733   0.63140   0.00000  Uiso   1.00
H439   H     0.63565   1.01381   0.54903   0.00000  Uiso   1.00
H440   H     0.57582   0.89577   0.56513   0.00000  Uiso   1.00
H441   H     0.42565   0.40776   0.95583   0.00000  Uiso   1.00
H442   H     0.50276   0.39629   0.89264   0.00000  Uiso   1.00
H443   H     0.55708   0.50104   0.93146   0.00000  Uiso   1.00
H444   H     0.70843   0.55078   0.89952   0.00000  Uiso   1.00
H445   H     0.71506   0.47180   0.85280   0.00000  Uiso   1.00
H446   H     0.65274   0.51105   0.81599   0.00000  Uiso   1.00
H447   H     0.88921   0.75629   0.74030   0.00000  Uiso   1.00
H448   H     0.76415   0.69695   0.77295   0.00000  Uiso   1.00
H449   H     0.79536   0.65015   0.70303   0.00000  Uiso   1.00
H450   H     0.92234   0.66321   0.92631   0.00000  Uiso   1.00
H451   H     0.90194   0.74055   0.89792   0.00000  Uiso   1.00
H452   H     1.00797   0.74645   0.85242   0.00000  Uiso   1.00
H453   H     0.60983   0.63820   0.87616   0.00000  Uiso   1.00
H454   H     0.60437   0.64425   0.97612   0.00000  Uiso   1.00
H455   H     0.71915   0.67893   0.92648   0.00000  Uiso   1.00
H456   H     0.81500   0.92937   0.84569   0.00000  Uiso   1.00
H457   H     0.74089   0.82955   0.79116   0.00000  Uiso   1.00
H458   H     0.83585   0.84237   0.84356   0.00000  Uiso   1.00
H459   H     0.62766   0.96243   0.76687   0.00000  Uiso   1.00
H460   H     0.66910   0.98310   0.85028   0.00000  Uiso   1.00
H461   H     0.67947   0.90643   0.79032   0.00000  Uiso   1.00
loop_
_geom_bond_atom_site_label_1
_geom_bond_atom_site_label_2
_geom_bond_distance
_geom_bond_site_symmetry_2
_ccdc_geom_bond_type
Si1    C52     1.880   .     S
Si1    C56     1.888   .     S
Si1    C53     1.846   1_545 S
Si1    O75     1.579   1_545 S
Si2    C54     1.894   .     S
Si2    C55     1.862   .     S
Si2    O127    1.586   1_455 S
Si2    O136    1.595   1_455 S
Si3    C57     1.842   .     S
Si3    C58     1.858   .     S
Si3    C59     1.832   1_554 S
Si3    O64     1.592   1_554 S
Si4    C60     1.849   .     S
Si4    O65     1.611   .     S
Si4    O134    1.623   1_455 S
Si4    O145    1.605   1_455 S
Si5    C61     1.849   .     S
Si5    O66     1.572   .     S
Si5    C62     1.827   1_545 S
Si5    C63     1.840   1_545 S
Si6    O64     1.607   .     S
Si6    O70     1.576   .     S
Si6    O131    1.580   1_455 S
Si6    O140    1.599   1_455 S
Si7    O65     1.609   .     S
Si7    O66     1.574   .     S
Si7    O71     1.561   .     S
Si7    O85     1.598   .     S
Si8    C67     1.826   .     S
Si8    C68     1.785   .     S
Si8    C69     1.863   1_455 S
Si8    O163    1.603   1_455 S
Si9    O70     1.563   .     S
Si9    O71     1.589   .     S
Si9    C72     1.850   .     S
Si9    C73     1.996   .     S
Si10   C74     1.841   .     S
Si10   O81     1.712   .     S
Si10   O150    1.647   1_455 S
Si10   O159    1.650   1_455 S
Si11   O75     1.553   .     S
Si11   C77     1.834   .     S
Si11   C76     1.792   1_455 S
Si11   C169    1.857   1_455 S
Si12   C78     1.798   .     S
Si12   C79     1.786   .     S
Si12   C80     1.907   .     S
Si12   O110    1.564   .     S
Si13   O81     1.616   .     S
Si13   C82     1.913   .     S
Si13   C83     1.909   .     S
Si13   O119    1.627   .     S
Si14   C84     1.845   .     S
Si14   O85     1.627   .     S
Si14   O88     1.635   .     S
Si14   O100    1.663   .     S
Si15   C86     1.833   .     S
Si15   C87     1.782   .     S
Si15   O101    1.664   .     S
Si15   O130    1.589   .     S
Si16   O89     1.653   .     S
Si16   O142    1.634   .     S
Si16   O122    1.667   1_545 S
Si16   O126    1.563   1_545 S
Si17   O88     1.651   .     S
Si17   O89     1.634   .     S
Si17   C90     1.892   .     S
Si17   C91     1.845   .     S
Si18   C92     1.877   .     S
Si18   C93     1.822   .     S
Si18   O97     1.590   .     S
Si18   O148    1.562   .     S
Si19   C94     1.855   .     S
Si19   C95     1.867   .     S
Si19   C96     1.907   .     S
Si19   O105    1.679   .     S
Si20   O97     1.602   .     S
Si20   C98     1.848   .     S
Si20   C99     1.901   1_554 S
Si20   O162    1.576   1_554 S
Si21   O100    1.612   .     S
Si21   O101    1.622   .     S
Si21   O106    1.595   .     S
Si21   O152    1.564   .     S
Si22   C102    1.869   .     S
Si22   C103    1.861   .     S
Si22   C104    1.862   .     S
Si22   O113    1.618   .     S
Si23   O105    1.627   .     S
Si23   O106    1.586   .     S
Si23   O114    1.618   .     S
Si23   O149    1.608   .     S
Si24   C107    1.925   .     S
Si24   C108    1.908   .     S
Si24   C109    1.837   .     S
Si24   O110    1.598   .     S
Si25   C111    1.832   .     S
Si25   C112    1.850   .     S
Si25   C121    1.895   1_554 S
Si25   O197    1.589   1_554 S
Si26   O113    1.553   .     S
Si26   O114    1.591   .     S
Si26   C115    1.831   .     S
Si26   O183    1.655   .     S
Si27   C116    1.862   .     S
Si27   C117    1.893   .     S
Si27   C118    1.922   .     S
Si27   O124    1.574   .     S
Si28   O119    1.664   .     S
Si28   C120    1.881   .     S
Si28   O122    1.632   .     S
Si28   C123    1.852   .     S
Si29   O124    1.604   .     S
Si29   C125    1.856   .     S
Si29   O126    1.588   .     S
Si29   C187    1.929   .     S
Si30   O127    1.635   .     S
Si30   O132    1.593   .     S
Si30   O172    1.591   1_545 S
Si30   O177    1.595   1_545 S
Si31   C128    1.848   .     S
Si31   C129    1.843   .     S
Si31   O130    1.627   .     S
Si31   O137    1.607   .     S
Si32   O132    1.629   .     S
Si32   C133    1.820   .     S
Si32   O131    1.621   1_554 S
Si32   O143    1.660   1_554 S
Si33   O134    1.626   .     S
Si33   O138    1.660   .     S
Si33   C135    1.836   1_545 S
Si33   O185    1.641   1_545 S
Si34   O136    1.641   .     S
Si34   O137    1.588   .     S
Si34   O138    1.627   .     S
Si34   C139    1.925   .     S
Si35   O140    1.572   .     S
Si35   O147    1.594   .     S
Si35   C141    1.890   1_545 S
Si35   C196    1.898   1_545 S
Si36   O142    1.677   .     S
Si36   O143    1.611   .     S
Si36   C144    1.884   .     S
Si36   O157    1.626   .     S
Si37   O145    1.639   .     S
Si37   C146    1.903   .     S
Si37   O147    1.563   .     S
Si37   O158    1.629   .     S
Si38   O148    1.556   .     S
Si38   O149    1.615   .     S
Si38   O155    1.573   .     S
Si38   O166    1.595   .     S
Si39   C151    1.787   .     S
Si39   O167    1.662   .     S
Si39   O150    1.644   1_554 S
Si39   O161    1.619   1_554 S
Si40   O152    1.568   .     S
Si40   C153    1.858   .     S
Si40   O164    1.598   .     S
Si40   O178    1.534   .     S
Si41   C154    1.807   .     S
Si41   O155    1.568   .     S
Si41   C156    1.879   .     S
Si41   C179    1.853   .     S
Si42   O157    1.580   .     S
Si42   O158    1.652   .     S
Si42   O159    1.616   .     S
Si42   O165    1.576   .     S
Si43   C160    1.906   .     S
Si43   O161    1.618   .     S
Si43   O162    1.580   .     S
Si43   C188    1.918   .     S
Si44   O163    1.532   .     S
Si44   O164    1.561   .     S
Si44   O165    1.624   .     S
Si44   O190    1.624   .     S
Si45   O166    1.616   .     S
Si45   O167    1.607   .     S
Si45   C168    1.853   .     S
Si45   C175    1.835   .     S
Si46   C170    1.840   .     S
Si46   C171    1.796   .     S
Si46   O172    1.574   .     S
Si46   C173    1.847   .     S
Si47   C176    1.874   .     S
Si47   O177    1.569   .     S
Si47   C174    1.850   1_554 S
Si47   O194    1.621   1_554 S
Si48   O178    1.652   .     S
Si48   C180    1.857   .     S
Si48   C181    1.858   .     S
Si48   C182    1.803   .     S
Si49   O183    1.616   .     S
Si49   C184    1.892   .     S
Si49   O185    1.653   .     S
Si49   C186    1.794   .     S
Si50   C189    1.899   .     S
Si50   O190    1.608   .     S
Si50   C191    1.857   .     S
Si50   C192    1.907   .     S
Si51   C193    1.878   .     S
Si51   O194    1.558   .     S
Si51   C195    1.878   .     S
Si51   O197    1.586   .     S
C52    H198    1.034   .     S
C52    H199    1.068   .     S
C52    H200    1.093   .     S
C53    H201    1.042   .     S
C53    H202    1.143   .     S
C53    H203    1.122   .     S
C53    Si1     1.846   1_565 S
C54    H204    1.178   .     S
C54    H205    1.106   .     S
C54    H206    1.089   .     S
C55    H207    1.131   .     S
C55    H208    1.091   .     S
C55    H209    1.128   .     S
C56    H210    1.137   .     S
C56    H211    1.109   .     S
C56    H212    1.081   .     S
C57    H213    1.077   .     S
C57    H214    1.106   .     S
C57    H215    1.112   .     S
C58    H216    1.143   .     S
C58    H217    1.092   .     S
C58    H218    1.090   .     S
C59    H219    1.099   .     S
C59    H220    1.069   .     S
C59    H221    1.058   .     S
C59    Si3     1.832   1_556 S
C60    H222    1.162   .     S
C60    H223    1.062   .     S
C60    H224    1.034   .     S
C61    H225    1.115   .     S
C61    H226    1.030   .     S
C61    H227    1.106   .     S
C62    H228    1.131   .     S
C62    H229    1.075   .     S
C62    H230    1.152   .     S
C62    Si5     1.827   1_565 S
C63    H231    1.095   .     S
C63    H232    1.103   .     S
C63    H233    1.125   .     S
C63    Si5     1.840   1_565 S
O64    Si3     1.592   1_556 S
C67    H234    1.120   .     S
C67    H235    1.085   .     S
C67    H236    1.077   .     S
C68    H237    1.140   .     S
C68    H238    1.096   .     S
C68    H239    1.071   .     S
C69    H240    1.113   .     S
C69    H241    1.126   .     S
C69    H242    1.114   .     S
C69    Si8     1.863   1_655 S
C72    H243    1.107   .     S
C72    H244    1.048   .     S
C72    H245    1.127   .     S
C73    H246    1.120   .     S
C73    H247    1.128   .     S
C73    H248    1.048   .     S
C74    H249    1.122   .     S
C74    H250    1.151   .     S
C74    H251    1.120   .     S
O75    Si1     1.579   1_565 S
C76    H252    1.057   .     S
C76    H253    1.119   .     S
C76    H254    1.092   .     S
C76    Si11    1.792   1_655 S
C77    H255    1.126   .     S
C77    H256    1.082   .     S
C77    H257    1.134   .     S
C78    H258    1.136   .     S
C78    H259    1.105   .     S
C78    H260    1.149   .     S
C79    H261    1.123   .     S
C79    H262    1.104   .     S
C79    H263    1.080   .     S
C80    H264    1.130   .     S
C80    H265    1.081   .     S
C80    H266    1.070   .     S
C82    H267    1.095   .     S
C82    H268    1.098   .     S
C82    H269    1.131   .     S
C83    H270    1.082   .     S
C83    H271    1.114   .     S
C83    H272    1.102   .     S
C84    H273    1.072   .     S
C84    H274    1.110   .     S
C84    H275    1.131   .     S
C86    H276    1.146   .     S
C86    H277    1.105   .     S
C86    H278    1.072   .     S
C87    H279    1.104   .     S
C87    H280    1.156   .     S
C87    H281    1.111   .     S
C90    H282    1.094   .     S
C90    H283    1.070   .     S
C90    H284    1.155   .     S
C91    H285    1.147   .     S
C91    H286    1.100   .     S
C91    H287    1.099   .     S
C92    H288    1.132   .     S
C92    H289    1.188   .     S
C92    H290    1.110   .     S
C93    H291    1.098   .     S
C93    H292    1.097   .     S
C93    H293    1.104   .     S
C94    H294    1.115   .     S
C94    H295    1.154   .     S
C94    H296    1.084   .     S
C95    H297    1.134   .     S
C95    H298    1.117   .     S
C95    H299    1.033   .     S
C96    H300    1.098   .     S
C96    H301    1.122   .     S
C96    H302    1.137   .     S
C98    H303    1.095   .     S
C98    H304    1.059   .     S
C98    H305    1.126   .     S
C99    H306    1.108   .     S
C99    H307    1.135   .     S
C99    H308    1.088   .     S
C99    Si20    1.901   1_556 S
C102   H309    1.140   .     S
C102   H310    1.122   .     S
C102   H311    1.113   .     S
C103   H312    1.083   .     S
C103   H313    1.112   .     S
C103   H314    1.133   .     S
C104   H315    1.121   .     S
C104   H316    1.109   .     S
C104   H317    1.080   .     S
C107   H318    1.110   .     S
C107   H319    1.089   .     S
C107   H320    1.104   .     S
C108   H321    1.143   .     S
C108   H322    1.129   .     S
C108   H323    1.115   .     S
C109   H324    1.103   .     S
C109   H325    1.077   .     S
C109   H326    1.125   .     S
C111   H327    1.119   .     S
C111   H328    1.092   .     S
C111   H329    1.083   .     S
C112   H330    1.096   .     S
C112   H331    1.112   .     S
C112   H332    1.068   .     S
C115   H333    1.128   .     S
C115   H334    1.111   .     S
C115   H335    1.097   .     S
C116   H336    1.081   .     S
C116   H337    1.093   .     S
C116   H338    1.126   .     S
C117   H339    1.087   .     S
C117   H340    1.113   .     S
C117   H341    1.079   .     S
C118   H342    1.077   .     S
C118   H343    1.081   .     S
C118   H344    1.077   .     S
C120   H345    1.133   .     S
C120   H346    1.042   .     S
C120   H347    1.029   .     S
C121   H348    1.092   .     S
C121   H349    1.101   .     S
C121   H350    1.114   .     S
C121   Si25    1.895   1_556 S
O122   Si16    1.667   1_565 S
C123   H351    1.126   .     S
C123   H352    1.173   .     S
C123   H353    1.079   .     S
C125   H354    1.097   .     S
C125   H355    1.100   .     S
C125   H356    1.138   .     S
O126   Si16    1.563   1_565 S
O127   Si2     1.586   1_655 S
C128   H357    1.090   .     S
C128   H358    1.079   .     S
C128   H359    1.161   .     S
C129   H360    1.104   .     S
C129   H361    1.104   .     S
C129   H362    1.123   .     S
O131   Si6     1.580   1_655 S
O131   Si32    1.621   1_556 S
C133   H363    1.118   .     S
C133   H364    1.087   .     S
C133   H365    1.190   .     S
O134   Si4     1.623   1_655 S
C135   H366    1.091   .     S
C135   H367    1.093   .     S
C135   H368    1.098   .     S
C135   Si33    1.836   1_565 S
O136   Si2     1.595   1_655 S
C139   H369    1.089   .     S
C139   H370    1.113   .     S
C139   H371    1.054   .     S
O140   Si6     1.599   1_655 S
C141   H372    1.045   .     S
C141   H373    1.155   .     S
C141   H374    1.094   .     S
C141   Si35    1.890   1_565 S
O143   Si32    1.660   1_556 S
C144   H375    1.157   .     S
C144   H376    1.079   .     S
C144   H377    1.108   .     S
O145   Si4     1.605   1_655 S
C146   H378    1.105   .     S
C146   H379    1.108   .     S
C146   H380    1.114   .     S
O150   Si10    1.647   1_655 S
O150   Si39    1.644   1_556 S
C151   H381    1.118   .     S
C151   H382    1.133   .     S
C151   H383    1.073   .     S
C153   H384    1.050   .     S
C153   H385    1.101   .     S
C153   H386    1.108   .     S
C154   H387    1.121   .     S
C154   H388    1.100   .     S
C154   H389    1.101   .     S
C156   H390    1.136   .     S
C156   H391    1.084   .     S
C156   H392    1.128   .     S
O159   Si10    1.650   1_655 S
C160   H393    1.085   .     S
C160   H394    1.087   .     S
C160   H395    1.096   .     S
O161   Si39    1.619   1_556 S
O162   Si20    1.576   1_556 S
O163   Si8     1.603   1_655 S
C168   H396    1.153   .     S
C168   H397    1.081   .     S
C168   H398    1.121   .     S
C169   H399    1.097   .     S
C169   H400    1.145   .     S
C169   H401    1.141   .     S
C169   Si11    1.857   1_655 S
C170   H402    1.121   .     S
C170   H403    1.121   .     S
C170   H404    1.062   .     S
C171   H405    1.097   .     S
C171   H406    1.103   .     S
C171   H407    1.084   .     S
O172   Si30    1.591   1_565 S
C173   H408    1.072   .     S
C173   H409    1.120   .     S
C173   H410    1.163   .     S
C174   H411    1.077   .     S
C174   H412    1.156   .     S
C174   H413    1.116   .     S
C174   Si47    1.850   1_556 S
C175   H414    1.059   .     S
C175   H415    1.092   .     S
C175   H416    1.126   .     S
C176   H417    1.140   .     S
C176   H418    1.143   .     S
C176   H419    1.136   .     S
O177   Si30    1.595   1_565 S
C179   H420    1.123   .     S
C179   H421    1.044   .     S
C179   H422    1.085   .     S
C180   H423    1.060   .     S
C180   H424    1.115   .     S
C180   H425    1.121   .     S
C181   H426    1.122   .     S
C181   H427    1.069   .     S
C181   H428    1.090   .     S
C182   H429    1.106   .     S
C182   H430    1.129   .     S
C182   H431    1.155   .     S
C184   H432    1.075   .     S
C184   H433    1.110   .     S
C184   H434    1.131   .     S
O185   Si33    1.641   1_565 S
C186   H435    1.149   .     S
C186   H436    1.075   .     S
C186   H437    1.094   .     S
C187   H438    1.094   .     S
C187   H439    1.088   .     S
C187   H440    1.104   .     S
C188   H441    1.153   .     S
C188   H442    1.059   .     S
C188   H443    1.116   .     S
C189   H444    1.075   .     S
C189   H445    1.038   .     S
C189   H446    1.124   .     S
C191   H447    1.065   .     S
C191   H448    1.090   .     S
C191   H449    1.066   .     S
C192   H450    1.152   .     S
C192   H451    1.122   .     S
C192   H452    1.111   .     S
C193   H453    1.087   .     S
C193   H454    1.148   .     S
C193   H455    1.098   .     S
O194   Si47    1.621   1_556 S
C195   H456    1.108   .     S
C195   H457    1.146   .     S
C195   H458    1.097   .     S
C196   H459    1.076   .     S
C196   H460    1.128   .     S
C196   H461    1.118   .     S
C196   Si35    1.898   1_565 S
O197   Si25    1.589   1_556 S
