data_333-13-11-12-15-30-2
_audit_creation_date              2025-03-07
_audit_creation_method            'Materials Studio'
_symmetry_space_group_name_H-M    'P1'
_symmetry_Int_Tables_number       1
_symmetry_cell_setting            triclinic
loop_
_symmetry_equiv_pos_as_xyz
  x,y,z
_cell_length_a                    15.4805
_cell_length_b                    18.1744
_cell_length_c                    18.7148
_cell_angle_alpha                 80.9388
_cell_angle_beta                  94.9286
_cell_angle_gamma                 124.0444
loop_
_atom_site_label
_atom_site_type_symbol
_atom_site_fract_x
_atom_site_fract_y
_atom_site_fract_z
_atom_site_U_iso_or_equiv
_atom_site_adp_type
_atom_site_occupancy
Si1    Si    0.16965  -0.07579   0.06277   0.00000  Uiso   1.00
Si2    Si    0.04882   0.23255   0.37328   0.00000  Uiso   1.00
Si3    Si    0.15962  -0.08465   0.39846   0.00000  Uiso   1.00
Si4    Si    0.00852   0.18787   0.53216   0.00000  Uiso   1.00
Si5    Si    0.00089   0.54400   0.57015   0.00000  Uiso   1.00
Si6    Si    0.08377   0.25027   0.91169   0.00000  Uiso   1.00
Si7    Si   -0.01456   0.51797   0.86333   0.00000  Uiso   1.00
Si8    Si    0.19505   0.57568   0.66665   0.00000  Uiso   1.00
Si9    Si    0.17797   0.66565   0.08823   0.00000  Uiso   1.00
Si10   Si    0.01401   0.77334   0.18221   0.00000  Uiso   1.00
Si11   Si    0.16678   0.79797  -0.02512   0.00000  Uiso   1.00
Si12   Si   -0.00458   0.77519   0.51108   0.00000  Uiso   1.00
Si13   Si    0.18136   0.80967   0.29789   0.00000  Uiso   1.00
Si14   Si    0.18104   0.68083   0.76928   0.00000  Uiso   1.00
Si15   Si   -0.00808   0.79588   0.87871   0.00000  Uiso   1.00
Si16   Si    0.14953   0.77610   0.62834   0.00000  Uiso   1.00
Si17   Si    0.57633  -0.04582   0.06408   0.00000  Uiso   1.00
Si18   Si    0.61281   0.03374   0.36542   0.00000  Uiso   1.00
Si19   Si    0.71704   0.18592   0.23891   0.00000  Uiso   1.00
Si20   Si    0.47337   0.02376   0.79688   0.00000  Uiso   1.00
Si21   Si    0.36568   0.12079   0.76213   0.00000  Uiso   1.00
Si22   Si    0.40193   0.30649   0.12552   0.00000  Uiso   1.00
Si23   Si    0.39215   0.54440   0.23058   0.00000  Uiso   1.00
Si24   Si    0.45560   0.47036   0.01881   0.00000  Uiso   1.00
Si25   Si    0.47212   0.38982   0.48854   0.00000  Uiso   1.00
Si26   Si    0.33133   0.61236   0.53493   0.00000  Uiso   1.00
Si27   Si    0.42191   0.42906   0.72420   0.00000  Uiso   1.00
Si28   Si    0.24030   0.42627   0.96871   0.00000  Uiso   1.00
Si29   Si    0.50539   0.58489   0.60362   0.00000  Uiso   1.00
Si30   Si    0.48676   0.63126   0.08139   0.00000  Uiso   1.00
Si31   Si    0.49187   0.78812  -0.01387   0.00000  Uiso   1.00
Si32   Si    0.34566   0.82571   0.87485   0.00000  Uiso   1.00
Si33   Si    0.53617   1.03593   0.64688   0.00000  Uiso   1.00
Si34   Si    0.88322  -0.09179   0.07909   0.00000  Uiso   1.00
Si35   Si    0.81462  -0.12676   0.36382   0.00000  Uiso   1.00
Si36   Si    0.78552  -0.04087   0.79643   0.00000  Uiso   1.00
Si37   Si    0.64674   0.20123   0.85724   0.00000  Uiso   1.00
Si38   Si    0.88062   0.50953  -0.00527   0.00000  Uiso   1.00
Si39   Si    0.83263   0.37507   0.50324   0.00000  Uiso   1.00
Si40   Si    0.66448   0.55316   0.54616   0.00000  Uiso   1.00
Si41   Si    0.82701   0.48794   0.37123   0.00000  Uiso   1.00
Si42   Si    0.80434   0.39287   0.76577   0.00000  Uiso   1.00
Si43   Si    0.83933   0.54980   0.65632   0.00000  Uiso   1.00
Si44   Si    0.86130   0.62430   0.08719   0.00000  Uiso   1.00
Si45   Si    0.68393   0.76225   0.16609   0.00000  Uiso   1.00
Si46   Si    0.83332   0.76444  -0.00662   0.00000  Uiso   1.00
Si47   Si    0.81758   0.63227   0.41944   0.00000  Uiso   1.00
Si48   Si    0.83475   0.75310   0.27410   0.00000  Uiso   1.00
Si49   Si    0.87946   0.69210   0.75200   0.00000  Uiso   1.00
Si50   Si    0.66926   0.79464   0.91104   0.00000  Uiso   1.00
Si51   Si    0.91795   0.83110   0.61933   0.00000  Uiso   1.00
C52    C     0.13418  -0.01278  -0.00433   0.00000  Uiso   1.00
C53    C     0.29383   0.01711   0.09395   0.00000  Uiso   1.00
C54    C     0.16427   0.22219   0.37097   0.00000  Uiso   1.00
C55    C     1.08669   0.34672   0.36415   0.00000  Uiso   1.00
C56    C     0.29170  -0.00502   0.43312   0.00000  Uiso   1.00
O57    O    -0.01013   0.18801   0.44796   0.00000  Uiso   1.00
C58    C     0.12394  -0.01885   0.33352   0.00000  Uiso   1.00
C59    C    -0.11585   0.10055   0.58187   0.00000  Uiso   1.00
C60    C     0.04776   0.29529   0.56228   0.00000  Uiso   1.00
C61    C     0.12548   0.18308   0.56045   0.00000  Uiso   1.00
C62    C     0.07254   0.60803   0.48533   0.00000  Uiso   1.00
C63    C     0.15189   0.19342   0.92698   0.00000  Uiso   1.00
C64    C     0.04015   0.23677   0.81528   0.00000  Uiso   1.00
C65    C     0.00253   0.42614   0.90346   0.00000  Uiso   1.00
O66    O     0.08726   0.55598   0.63038   0.00000  Uiso   1.00
C67    C    -0.01241   0.22017   0.97737   0.00000  Uiso   1.00
C68    C     0.17013   0.46551   0.71278   0.00000  Uiso   1.00
C69    C     0.08498   0.59622   0.16400   0.00000  Uiso   1.00
C70    C     0.20625   0.60035   0.04299   0.00000  Uiso   1.00
C71    C     0.30209   0.75505   0.12546   0.00000  Uiso   1.00
O72    O     0.07501   0.86029   0.12260   0.00000  Uiso   1.00
O73    O     0.14258   0.71240   0.02658   0.00000  Uiso   1.00
O74    O     0.19968   0.86961   0.02706   0.00000  Uiso   1.00
O75    O     0.08317   0.86714   0.46729   0.00000  Uiso   1.00
O76    O     0.09746   0.76976   0.23533   0.00000  Uiso   1.00
C77    C     0.22742   0.73400   0.33443   0.00000  Uiso   1.00
O78    O     0.14487   0.83633   0.36021   0.00000  Uiso   1.00
C79    C     0.30609   0.92323   0.26738   0.00000  Uiso   1.00
O80    O     0.08868   0.60254   0.82582   0.00000  Uiso   1.00
O81    O     0.23132   0.64343   0.72503   0.00000  Uiso   1.00
O82    O     0.06715   0.77947   0.93080   0.00000  Uiso   1.00
C83    C     0.07344   0.91104   0.83044   0.00000  Uiso   1.00
O84    O     0.04612   0.74492   0.57888   0.00000  Uiso   1.00
O85    O     0.12651   0.71061   0.70614   0.00000  Uiso   1.00
C86    C     0.19218   0.88537   0.65741   0.00000  Uiso   1.00
C87    C     0.25815   0.80393   0.56687   0.00000  Uiso   1.00
C88    C     0.52992   0.01754   0.00737   0.00000  Uiso   1.00
C89    C     0.71339   0.01250   0.05765   0.00000  Uiso   1.00
C90    C     0.53979   0.94881   0.15620   0.00000  Uiso   1.00
C91    C     0.71766   0.04485   0.43416   0.00000  Uiso   1.00
C92    C     0.55518   1.08984   0.39205   0.00000  Uiso   1.00
C93    C     0.51895   0.91428   0.35513   0.00000  Uiso   1.00
C94    C     0.79949   0.19963   0.16646   0.00000  Uiso   1.00
O95    O     0.66959   0.08845   0.28804   0.00000  Uiso   1.00
C96    C     0.79443   0.27230   0.30505   0.00000  Uiso   1.00
C97    C     0.27761   0.09493   0.68412   0.00000  Uiso   1.00
O98    O     0.38535   0.04504   0.79755   0.00000  Uiso   1.00
C99    C     0.49486   0.22106   0.72660   0.00000  Uiso   1.00
C100   C     0.25989   0.23016   0.12775   0.00000  Uiso   1.00
C101   C     0.46076   0.26292   0.07410   0.00000  Uiso   1.00
C102   C     0.45330   0.31838   0.22461   0.00000  Uiso   1.00
C103   C     0.27501   0.42236   0.23387   0.00000  Uiso   1.00
C104   C     0.50903   0.54776   0.27302   0.00000  Uiso   1.00
C105   C     0.35365   0.60012   0.28538   0.00000  Uiso   1.00
O106   O     0.43831   0.40768   0.09074   0.00000  Uiso   1.00
C107   C     0.56765   0.49012   0.96284   0.00000  Uiso   1.00
C108   C     0.40640   0.27727   0.53777   0.00000  Uiso   1.00
C109   C     0.60420   0.19421   0.20275   0.00000  Uiso   1.00
C110   C     0.51667   0.37685   0.40682   0.00000  Uiso   1.00
C111   C     0.38707   0.43458   0.47750   0.00000  Uiso   1.00
C112   C     0.22331   0.53052   0.48333   0.00000  Uiso   1.00
C113   C     0.40272   0.72550   0.48635   0.00000  Uiso   1.00
O114   O     0.28636   0.61258   0.61024   0.00000  Uiso   1.00
C115   C     0.29958   0.31565   0.72486   0.00000  Uiso   1.00
C116   C     0.32129   0.14625   0.83816   0.00000  Uiso   1.00
C117   C     0.53121   0.41562   0.75340   0.00000  Uiso   1.00
C118   C     0.39985   0.47738   0.79743   0.00000  Uiso   1.00
O119   O     0.16404   0.35266   0.91803   0.00000  Uiso   1.00
O120   O     0.34574   0.42914   0.97687   0.00000  Uiso   1.00
C121   C     0.27688   0.53963   0.91611   0.00000  Uiso   1.00
C122   C     0.17627   0.40143   1.06014   0.00000  Uiso   1.00
O123   O     0.42002   0.58896   0.55135   0.00000  Uiso   1.00
O124   O     0.45378   0.48935   0.64660   0.00000  Uiso   1.00
C125   C     0.54981   0.67340   0.66140   0.00000  Uiso   1.00
O126   O     0.40681   0.58421   0.14706   0.00000  Uiso   1.00
O127   O     0.48351   0.56228   0.03788   0.00000  Uiso   1.00
O128   O     0.46284   0.69504   0.03288   0.00000  Uiso   1.00
O129   O     0.51298   0.85387   0.04474   0.00000  Uiso   1.00
O130   O     0.27355   0.76436   0.80949   0.00000  Uiso   1.00
O131   O     0.39842   0.77790   0.92783   0.00000  Uiso   1.00
O132   O     0.43903   0.93337   0.85092   0.00000  Uiso   1.00
O133   O     0.26801   0.83386   0.92327   0.00000  Uiso   1.00
C134   C     0.48705   1.09447   0.58251   0.00000  Uiso   1.00
C135   C     0.51815   0.94086   0.60604   0.00000  Uiso   1.00
O136   O     0.47864   1.00143   0.72205   0.00000  Uiso   1.00
C137   C     0.67764   1.12761   0.65613   0.00000  Uiso   1.00
C138   C     0.89103  -0.01302   0.00114   0.00000  Uiso   1.00
C139   C     0.99577  -0.02203   0.14328   0.00000  Uiso   1.00
C140   C     0.96169   0.18641   0.29469   0.00000  Uiso   1.00
C141   C     0.78565  -0.05124   0.30089   0.00000  Uiso   1.00
C142   C     0.92750  -0.04677   0.41857   0.00000  Uiso   1.00
C143   C     0.70623   0.78483   0.42249   0.00000  Uiso   1.00
C144   C     0.78643   0.04740   0.83462   0.00000  Uiso   1.00
C145   C     0.91798  -0.00045   0.76138   0.00000  Uiso   1.00
O146   O     0.58175   0.11294   0.81494   0.00000  Uiso   1.00
C147   C     0.74724   0.20081   0.91105   0.00000  Uiso   1.00
C148   C     0.56310   0.20339   0.92062   0.00000  Uiso   1.00
O149   O     0.96135   0.54778   0.93034   0.00000  Uiso   1.00
C150   C     0.87524   0.41633   0.05615   0.00000  Uiso   1.00
C151   C     0.74882   0.45479   0.95643   0.00000  Uiso   1.00
C152   C     0.71894   0.35605   0.54607   0.00000  Uiso   1.00
C153   C     0.81630   0.26519   0.51090   0.00000  Uiso   1.00
O154   O     0.92596   0.44363   0.55136   0.00000  Uiso   1.00
O155   O     0.57423   0.45252   0.53394   0.00000  Uiso   1.00
O156   O     0.60188   0.59702   0.56244   0.00000  Uiso   1.00
C157   C     0.94087   0.56020   0.30840   0.00000  Uiso   1.00
C158   C     0.71260   0.41623   0.31338   0.00000  Uiso   1.00
O159   O     0.84186   0.41533   0.42204   0.00000  Uiso   1.00
O160   O     0.70268   0.29897   0.80487   0.00000  Uiso   1.00
C161   C     0.87861   0.35545   0.72409   0.00000  Uiso   1.00
O162   O     0.88182   0.46719   0.81769   0.00000  Uiso   1.00
O163   O     0.92895   0.57075   0.60349   0.00000  Uiso   1.00
O164   O     0.74902   0.56119   0.61199   0.00000  Uiso   1.00
O165   O     0.78408   0.44881   0.69836   0.00000  Uiso   1.00
C166   C     0.74622   0.51820   0.14056   0.00000  Uiso   1.00
O167   O     0.90235   0.58860   0.03560   0.00000  Uiso   1.00
O168   O     0.95145   0.68597   0.14112   0.00000  Uiso   1.00
O169   O     0.60315   0.68611   0.11523   0.00000  Uiso   1.00
O170   O     0.77149   0.85140   0.11761   0.00000  Uiso   1.00
C171   C     0.61630   0.79192   0.22006   0.00000  Uiso   1.00
O172   O     0.90016   0.78563   0.92147   0.00000  Uiso   1.00
O173   O     0.81492   0.67784   0.04030   0.00000  Uiso   1.00
O174   O     0.89559   0.84118   0.04267   0.00000  Uiso   1.00
O175   O     0.72639   0.61218   0.47089   0.00000  Uiso   1.00
O176   O     0.81138   0.54620   0.41515   0.00000  Uiso   1.00
O177   O     0.92421   0.69898   0.45769   0.00000  Uiso   1.00
O178   O     0.93671   0.78061   0.22750   0.00000  Uiso   1.00
O179   O     0.73729   0.72372   0.22220   0.00000  Uiso   1.00
O180   O     0.79720   0.66808   0.33715   0.00000  Uiso   1.00
O181   O     0.85717   0.83364   0.31475   0.00000  Uiso   1.00
C182   C     0.74508   0.64939   0.76645   0.00000  Uiso   1.00
O183   O     0.88719   0.62070   0.71468   0.00000  Uiso   1.00
O184   O     0.94310   0.72410   0.82310   0.00000  Uiso   1.00
C185   C     0.57082   0.69854   0.85901   0.00000  Uiso   1.00
O186   O     0.72337   0.75399   0.97114   0.00000  Uiso   1.00
O187   O     0.75061   0.87486   0.85298   0.00000  Uiso   1.00
O188   O     0.60423   0.82323   0.94738   0.00000  Uiso   1.00
O189   O     0.92155   0.79110   0.55078   0.00000  Uiso   1.00
C190   C     0.79294   0.82394   0.61293   0.00000  Uiso   1.00
O191   O     0.92674   0.78000   0.69361   0.00000  Uiso   1.00
C192   C     1.02021   0.95557   0.60698   0.00000  Uiso   1.00
C193   C     0.68555   0.91846   0.72672   0.00000  Uiso   1.00
H194   H     0.05693  -0.05808  -0.02986   0.00000  Uiso   1.00
H195   H     0.19388   0.02732  -0.04993   0.00000  Uiso   1.00
H196   H     0.13143   0.03758   0.01473   0.00000  Uiso   1.00
H197   H     0.32998   0.07044   0.04637   0.00000  Uiso   1.00
H198   H     0.34661  -0.00633   0.10959   0.00000  Uiso   1.00
H199   H     0.27143   0.03679   0.13979   0.00000  Uiso   1.00
H200   H     0.22893   0.27214   0.40116   0.00000  Uiso   1.00
H201   H     0.19743   0.23396   0.31276   0.00000  Uiso   1.00
H202   H     0.13773   0.15173   0.39511   0.00000  Uiso   1.00
H203   H     1.17159   0.38828   0.36056   0.00000  Uiso   1.00
H204   H     1.07437   0.36184   0.41684   0.00000  Uiso   1.00
H205   H     1.04667   0.36095   0.32232   0.00000  Uiso   1.00
H206   H     0.32710  -0.04358   0.44716   0.00000  Uiso   1.00
H207   H     0.27536   0.01239   0.48186   0.00000  Uiso   1.00
H208   H     0.34727   0.05891   0.39185   0.00000  Uiso   1.00
H209   H     0.12666   0.03232   0.36077   0.00000  Uiso   1.00
H210   H     0.04718  -0.06397   0.31890   0.00000  Uiso   1.00
H211   H     0.17444   0.01706   0.28355   0.00000  Uiso   1.00
H212   H    -0.17712   0.10129   0.55273   0.00000  Uiso   1.00
H213   H    -0.11612   0.11796   0.63436   0.00000  Uiso   1.00
H214   H    -0.12846   0.03420   0.58216   0.00000  Uiso   1.00
H215   H     0.12463   0.35113   0.54265   0.00000  Uiso   1.00
H216   H     0.04561   0.29958   0.62086   0.00000  Uiso   1.00
H217   H    -0.00051   0.31371   0.53538   0.00000  Uiso   1.00
H218   H     0.13956   0.14662   0.52681   0.00000  Uiso   1.00
H219   H     0.10329   0.14800   0.61525   0.00000  Uiso   1.00
H220   H     0.19003   0.25072   0.55909   0.00000  Uiso   1.00
H221   H     0.04461   0.55720   0.45052   0.00000  Uiso   1.00
H222   H     0.15069   0.62994   0.49547   0.00000  Uiso   1.00
H223   H     0.06086   0.66412   0.46590   0.00000  Uiso   1.00
H224   H     0.11752   0.13785   0.89613   0.00000  Uiso   1.00
H225   H     0.15875   0.17713   0.98528   0.00000  Uiso   1.00
H226   H     0.22986   0.24130   0.90591   0.00000  Uiso   1.00
H227   H     0.10818   0.27215   0.77731   0.00000  Uiso   1.00
H228   H    -0.01252   0.26321   0.80238   0.00000  Uiso   1.00
H229   H    -0.00784   0.16176   0.81223   0.00000  Uiso   1.00
H230   H     0.04737   0.44468   0.95449   0.00000  Uiso   1.00
H231   H     0.03746   0.40891   0.86697   0.00000  Uiso   1.00
H232   H    -0.07718   0.36747   0.91772   0.00000  Uiso   1.00
H233   H    -0.09246   0.16263   0.96130   0.00000  Uiso   1.00
H234   H    -0.02738   0.27327   0.98450   0.00000  Uiso   1.00
H235   H     0.01109   0.19582   1.03032   0.00000  Uiso   1.00
H236   H     0.17989   0.46843   0.77260   0.00000  Uiso   1.00
H237   H     0.22490   0.45444   0.68724   0.00000  Uiso   1.00
H238   H     0.08456   0.41297   0.71104   0.00000  Uiso   1.00
H239   H     0.00571   0.55078   0.14348   0.00000  Uiso   1.00
H240   H     0.07738   0.64540   0.18636   0.00000  Uiso   1.00
H241   H     0.11557   0.56532   0.20725   0.00000  Uiso   1.00
H242   H     0.26702   0.64721   0.00192   0.00000  Uiso   1.00
H243   H     0.13081   0.55502   0.02343   0.00000  Uiso   1.00
H244   H     0.23194   0.56452   0.08098   0.00000  Uiso   1.00
H245   H     0.28294   0.77648   0.17439   0.00000  Uiso   1.00
H246   H     0.34086   0.81516   0.08137   0.00000  Uiso   1.00
H247   H     0.35586   0.73363   0.14779   0.00000  Uiso   1.00
H248   H     0.15755   0.66320   0.34545   0.00000  Uiso   1.00
H249   H     0.26851   0.75566   0.38383   0.00000  Uiso   1.00
H250   H     0.28746   0.74109   0.29846   0.00000  Uiso   1.00
H251   H     0.35977   0.93577   0.31232   0.00000  Uiso   1.00
H252   H     0.29626   0.98088   0.25332   0.00000  Uiso   1.00
H253   H     0.33775   0.91241   0.22345   0.00000  Uiso   1.00
H254   H     0.04216   0.91400   0.77502   0.00000  Uiso   1.00
H255   H     0.15764   0.93208   0.82947   0.00000  Uiso   1.00
H256   H     0.06681   0.95608   0.85717   0.00000  Uiso   1.00
H257   H     0.19800   0.93277   0.60848   0.00000  Uiso   1.00
H258   H     0.26682   0.91417   0.68740   0.00000  Uiso   1.00
H259   H     0.12699   0.86738   0.69358   0.00000  Uiso   1.00
H260   H     0.32241   0.87608   0.56981   0.00000  Uiso   1.00
H261   H     0.22972   0.79414   0.50974   0.00000  Uiso   1.00
H262   H     0.28198   0.75653   0.59328   0.00000  Uiso   1.00
H263   H     0.45036   0.00064   0.02030   0.00000  Uiso   1.00
H264   H     0.53693   0.01428  -0.04951   0.00000  Uiso   1.00
H265   H     0.58774   0.08630   0.02098   0.00000  Uiso   1.00
H266   H     0.74628  -0.01792   0.09953   0.00000  Uiso   1.00
H267   H     0.76540   0.08615   0.05815   0.00000  Uiso   1.00
H268   H     0.72162   0.00015   0.00191   0.00000  Uiso   1.00
H269   H     0.59676   1.01394   0.18216   0.00000  Uiso   1.00
H270   H     0.52002   0.88803   0.18616   0.00000  Uiso   1.00
H271   H     0.46540   0.94032   0.15193   0.00000  Uiso   1.00
H272   H     0.78070   0.11377   0.42527   0.00000  Uiso   1.00
H273   H     0.74342  -0.00220   0.43792   0.00000  Uiso   1.00
H274   H     0.68633   0.02436   0.49128   0.00000  Uiso   1.00
H275   H     0.60830   1.15722   0.41034   0.00000  Uiso   1.00
H276   H     0.50004   1.04091   0.43768   0.00000  Uiso   1.00
H277   H     0.50325   1.09212   0.34571   0.00000  Uiso   1.00
H278   H     0.56272   0.88199   0.35922   0.00000  Uiso   1.00
H279   H     0.49130   0.91490   0.30196   0.00000  Uiso   1.00
H280   H     0.45870   0.88148   0.39768   0.00000  Uiso   1.00
H281   H     0.76092   0.20050   0.11237   0.00000  Uiso   1.00
H282   H     0.82453   0.15353   0.17039   0.00000  Uiso   1.00
H283   H     0.86355   0.26537   0.16742   0.00000  Uiso   1.00
H284   H     0.85154   0.33952   0.27281   0.00000  Uiso   1.00
H285   H     0.82807   0.24531   0.34385   0.00000  Uiso   1.00
H286   H     0.73899   0.27118   0.33785   0.00000  Uiso   1.00
H287   H     0.21035   0.02538   0.69432   0.00000  Uiso   1.00
H288   H     0.31451   0.10926   0.63005   0.00000  Uiso   1.00
H289   H     0.24878   0.13754   0.67229   0.00000  Uiso   1.00
H290   H     0.48239   0.25834   0.67518   0.00000  Uiso   1.00
H291   H     0.55127   0.20368   0.71304   0.00000  Uiso   1.00
H292   H     0.53756   0.27051   0.76478   0.00000  Uiso   1.00
H293   H     0.22564   0.25302   0.08435   0.00000  Uiso   1.00
H294   H     0.23441   0.22829   0.17858   0.00000  Uiso   1.00
H295   H     0.22869   0.15952   0.12313   0.00000  Uiso   1.00
H296   H     0.43538   0.19737   0.10049   0.00000  Uiso   1.00
H297   H     0.55007   0.30257   0.07758   0.00000  Uiso   1.00
H298   H     0.43044   0.25708   0.01676   0.00000  Uiso   1.00
H299   H     0.53465   0.35733   0.21955   0.00000  Uiso   1.00
H300   H     0.42866   0.24948   0.25168   0.00000  Uiso   1.00
H301   H     0.42605   0.35201   0.25574   0.00000  Uiso   1.00
H302   H     0.28401   0.38668   0.19642   0.00000  Uiso   1.00
H303   H     0.20317   0.42229   0.22630   0.00000  Uiso   1.00
H304   H     0.28162   0.39675   0.28677   0.00000  Uiso   1.00
H305   H     0.48200   0.50028   0.32421   0.00000  Uiso   1.00
H306   H     0.57702   0.61727   0.28599   0.00000  Uiso   1.00
H307   H     0.53386   0.51964   0.23493   0.00000  Uiso   1.00
H308   H     0.42615   0.65953   0.30012   0.00000  Uiso   1.00
H309   H     0.31915   0.56247   0.33786   0.00000  Uiso   1.00
H310   H     0.30174   0.61503   0.24757   0.00000  Uiso   1.00
H311   H     0.53911   0.42602   0.93835   0.00000  Uiso   1.00
H312   H     0.63365   0.51125   1.00000   0.00000  Uiso   1.00
H313   H     0.59209   0.54789   0.92299   0.00000  Uiso   1.00
H314   H     0.38828   0.28411   0.58853   0.00000  Uiso   1.00
H315   H     0.46096   0.25438   0.55335   0.00000  Uiso   1.00
H316   H     0.33086   0.22856   0.51194   0.00000  Uiso   1.00
H317   H     0.62824   0.25197   0.15850   0.00000  Uiso   1.00
H318   H     0.57888   0.21295   0.24606   0.00000  Uiso   1.00
H319   H     0.53680   0.13499   0.18070   0.00000  Uiso   1.00
H320   H     0.44956   0.34339   0.37124   0.00000  Uiso   1.00
H321   H     0.56082   0.34656   0.42447   0.00000  Uiso   1.00
H322   H     0.57517   0.44559   0.38466   0.00000  Uiso   1.00
H323   H     0.43765   0.50754   0.45889   0.00000  Uiso   1.00
H324   H     0.33856   0.41783   0.52378   0.00000  Uiso   1.00
H325   H     0.33818   0.40615   0.43064   0.00000  Uiso   1.00
H326   H     0.24298   0.48303   0.47317   0.00000  Uiso   1.00
H327   H     0.22633   0.57073   0.43525   0.00000  Uiso   1.00
H328   H     0.14125   0.48969   0.50413   0.00000  Uiso   1.00
H329   H     0.48309   0.76015   0.50505   0.00000  Uiso   1.00
H330   H     0.37644   0.76644   0.49910   0.00000  Uiso   1.00
H331   H     0.39497   0.72036   0.42790   0.00000  Uiso   1.00
H332   H     0.31314   0.27322   0.69612   0.00000  Uiso   1.00
H333   H     0.23689   0.32115   0.69414   0.00000  Uiso   1.00
H334   H     0.27657   0.29188   0.78138   0.00000  Uiso   1.00
H335   H     0.23451   0.11573   0.83131   0.00000  Uiso   1.00
H336   H     0.36301   0.21995   0.83862   0.00000  Uiso   1.00
H337   H     0.33780   0.11611   0.88912   0.00000  Uiso   1.00
H338   H     0.50190   0.36725   0.80352   0.00000  Uiso   1.00
H339   H     0.59238   0.47535   0.77586   0.00000  Uiso   1.00
H340   H     0.56719   0.41005   0.70728   0.00000  Uiso   1.00
H341   H     0.44518   0.55045   0.78687   0.00000  Uiso   1.00
H342   H     0.42939   0.46339   0.85347   0.00000  Uiso   1.00
H343   H     0.31563   0.45051   0.80132   0.00000  Uiso   1.00
H344   H     0.29614   0.54446   0.86224   0.00000  Uiso   1.00
H345   H     0.34137   0.59084   0.94712   0.00000  Uiso   1.00
H346   H     0.20847   0.54367   0.91403   0.00000  Uiso   1.00
H347   H     0.14701   0.33204   1.08555   0.00000  Uiso   1.00
H348   H     0.11157   0.41351   1.04714   0.00000  Uiso   1.00
H349   H     0.23311   0.44675   1.09890   0.00000  Uiso   1.00
H350   H     0.59122   0.73910   0.63126   0.00000  Uiso   1.00
H351   H     0.60230   0.66969   0.69972   0.00000  Uiso   1.00
H352   H     0.48046   0.66176   0.68882   0.00000  Uiso   1.00
H353   H     0.53562   1.12882   0.53068   0.00000  Uiso   1.00
H354   H     0.49900   1.15159   0.60699   0.00000  Uiso   1.00
H355   H     0.40299   1.05162   0.56901   0.00000  Uiso   1.00
H356   H     0.47403   0.88265   0.64197   0.00000  Uiso   1.00
H357   H     0.59372   0.95804   0.59136   0.00000  Uiso   1.00
H358   H     0.47969   0.93243   0.55672   0.00000  Uiso   1.00
H359   H     0.70166   1.12268   0.71207   0.00000  Uiso   1.00
H360   H     0.69151   1.19464   0.64472   0.00000  Uiso   1.00
H361   H     0.72998   1.12293   0.62522   0.00000  Uiso   1.00
H362   H     0.90899   0.05061   0.02266   0.00000  Uiso   1.00
H363   H     0.82036  -0.04326  -0.03450   0.00000  Uiso   1.00
H364   H     0.95399  -0.00021  -0.03109   0.00000  Uiso   1.00
H365   H     1.07210   0.02080   0.11577   0.00000  Uiso   1.00
H366   H     1.00564  -0.06532   0.19065   0.00000  Uiso   1.00
H367   H     0.98159   0.01998   0.16778   0.00000  Uiso   1.00
H368   H     0.96776   0.13618   0.27546   0.00000  Uiso   1.00
H369   H     0.98525   0.24279   0.24900   0.00000  Uiso   1.00
H370   H     0.88267   0.15494   0.31317   0.00000  Uiso   1.00
H371   H     0.81403  -0.03866   0.24293   0.00000  Uiso   1.00
H372   H     0.81817   0.01131   0.32451   0.00000  Uiso   1.00
H373   H     0.70153  -0.08738   0.30332   0.00000  Uiso   1.00
H374   H     0.98285   0.00613   0.37779   0.00000  Uiso   1.00
H375   H     0.96139  -0.07777   0.45246   0.00000  Uiso   1.00
H376   H     0.90100  -0.01848   0.45300   0.00000  Uiso   1.00
H377   H     0.64638   0.73239   0.39290   0.00000  Uiso   1.00
H378   H     0.66883   0.80781   0.45347   0.00000  Uiso   1.00
H379   H     0.74131   0.75578   0.46121   0.00000  Uiso   1.00
H380   H     0.80514   0.09968   0.79113   0.00000  Uiso   1.00
H381   H     0.84397   0.07072   0.87516   0.00000  Uiso   1.00
H382   H     0.71252   0.02702   0.85564   0.00000  Uiso   1.00
H383   H     0.94647   0.05341   0.71617   0.00000  Uiso   1.00
H384   H     0.91269  -0.06193   0.74816   0.00000  Uiso   1.00
H385   H     0.96537   0.01884   0.81107   0.00000  Uiso   1.00
H386   H     0.76474   0.23905   0.95593   0.00000  Uiso   1.00
H387   H     0.81681   0.22974   0.88385   0.00000  Uiso   1.00
H388   H     0.72142   0.13034   0.93472   0.00000  Uiso   1.00
H389   H     0.60655   0.23066   0.97283   0.00000  Uiso   1.00
H390   H     0.49048   0.14032   0.93197   0.00000  Uiso   1.00
H391   H     0.54539   0.25578   0.90079   0.00000  Uiso   1.00
H392   H     0.81697   0.34926   0.03613   0.00000  Uiso   1.00
H393   H     0.85622   0.41489   0.11049   0.00000  Uiso   1.00
H394   H     0.95521   0.42608   0.06431   0.00000  Uiso   1.00
H395   H     0.73960   0.40595   0.91953   0.00000  Uiso   1.00
H396   H     0.74334   0.50702   0.92224   0.00000  Uiso   1.00
H397   H     0.69006   0.40771   0.99853   0.00000  Uiso   1.00
H398   H     0.71858   0.33666   0.60584   0.00000  Uiso   1.00
H399   H     0.64878   0.30603   0.52383   0.00000  Uiso   1.00
H400   H     0.72958   0.42488   0.53625   0.00000  Uiso   1.00
H401   H     0.86874   0.26007   0.47394   0.00000  Uiso   1.00
H402   H     0.73117   0.21002   0.50181   0.00000  Uiso   1.00
H403   H     0.84337   0.25778   0.56852   0.00000  Uiso   1.00
H404   H     1.00631   0.61096   0.34141   0.00000  Uiso   1.00
H405   H     0.91897   0.59562   0.26827   0.00000  Uiso   1.00
H406   H     0.96454   0.52133   0.28839   0.00000  Uiso   1.00
H407   H     0.67751   0.45743   0.29557   0.00000  Uiso   1.00
H408   H     0.65453   0.34984   0.33966   0.00000  Uiso   1.00
H409   H     0.73137   0.40315   0.26470   0.00000  Uiso   1.00
H410   H     0.89369   0.31564   0.76649   0.00000  Uiso   1.00
H411   H     0.94299   0.40814   0.69433   0.00000  Uiso   1.00
H412   H     0.83307   0.31340   0.68078   0.00000  Uiso   1.00
H413   H     0.75784   0.46078   0.15363   0.00000  Uiso   1.00
H414   H     0.67389   0.48851   0.10435   0.00000  Uiso   1.00
H415   H     0.73095   0.54273   0.18845   0.00000  Uiso   1.00
H416   H     0.64037   0.78318   0.27641   0.00000  Uiso   1.00
H417   H     0.53458   0.74893   0.21338   0.00000  Uiso   1.00
H418   H     0.64202   0.86172   0.19978   0.00000  Uiso   1.00
H419   H     0.71963   0.59874   0.81532   0.00000  Uiso   1.00
H420   H     0.70069   0.62157   0.71711   0.00000  Uiso   1.00
H421   H     0.73771   0.70626   0.76591   0.00000  Uiso   1.00
H422   H     0.54272   0.72675   0.81811   0.00000  Uiso   1.00
H423   H     0.50429   0.64734   0.89344   0.00000  Uiso   1.00
H424   H     0.60605   0.66525   0.83983   0.00000  Uiso   1.00
H425   H     0.77583   0.82948   0.66711   0.00000  Uiso   1.00
H426   H     0.73529   0.75581   0.59894   0.00000  Uiso   1.00
H427   H     0.79428   0.87867   0.57658   0.00000  Uiso   1.00
H428   H     1.05424   0.98831   0.65844   0.00000  Uiso   1.00
H429   H     0.97605   0.98207   0.57375   0.00000  Uiso   1.00
H430   H     1.08663   0.97128   0.58053   0.00000  Uiso   1.00
H431   H     0.63982   0.84640   0.72252   0.00000  Uiso   1.00
H432   H     0.72204   0.95373   0.67704   0.00000  Uiso   1.00
H433   H     0.63647   0.94286   0.72878   0.00000  Uiso   1.00
loop_
_geom_bond_atom_site_label_1
_geom_bond_atom_site_label_2
_geom_bond_distance
_geom_bond_site_symmetry_2
_ccdc_geom_bond_type
Si1    C52     1.823   .     S
Si1    C53     1.836   .     S
Si1    O72     1.648   1_545 S
Si1    O74     1.558   1_545 S
Si2    C54     1.904   .     S
Si2    O57     1.574   .     S
Si2    C55     1.795   1_455 S
Si2    C140    1.862   1_455 S
Si3    C56     1.857   .     S
Si3    C58     1.838   .     S
Si3    O75     1.604   1_545 S
Si3    O78     1.599   1_545 S
Si4    O57     1.577   .     S
Si4    C59     1.874   .     S
Si4    C60     1.860   .     S
Si4    C61     1.888   .     S
Si5    C62     1.838   .     S
Si5    O66     1.612   .     S
Si5    O154    1.600   1_455 S
Si5    O163    1.639   1_455 S
Si6    C63     1.827   .     S
Si6    C64     1.875   .     S
Si6    C67     1.794   .     S
Si6    O119    1.574   .     S
Si7    C65     1.867   .     S
Si7    O80     1.585   .     S
Si7    O149    1.589   1_455 S
Si7    O162    1.584   1_455 S
Si8    O66     1.608   .     S
Si8    C68     1.884   .     S
Si8    O81     1.603   .     S
Si8    O114    1.592   .     S
Si9    C69     1.852   .     S
Si9    C70     1.811   .     S
Si9    C71     1.857   .     S
Si9    O73     1.567   .     S
Si10   O72     1.609   .     S
Si10   O76     1.586   .     S
Si10   O168    1.608   1_455 S
Si10   O178    1.598   1_455 S
Si11   O73     1.559   .     S
Si11   O74     1.575   .     S
Si11   O82     1.569   1_554 S
Si11   O133    1.653   1_554 S
Si12   O75     1.590   .     S
Si12   O84     1.619   .     S
Si12   O177    1.634   1_455 S
Si12   O189    1.590   1_455 S
Si13   O76     1.592   .     S
Si13   C77     1.893   .     S
Si13   O78     1.585   .     S
Si13   C79     1.916   .     S
Si14   O80     1.642   .     S
Si14   O81     1.623   .     S
Si14   O85     1.594   .     S
Si14   O130    1.632   .     S
Si15   O82     1.581   .     S
Si15   C83     1.853   .     S
Si15   O172    1.595   1_455 S
Si15   O184    1.595   1_455 S
Si16   O84     1.623   .     S
Si16   O85     1.653   .     S
Si16   C86     1.867   .     S
Si16   C87     1.898   .     S
Si17   C88     1.838   .     S
Si17   C89     1.768   .     S
Si17   C90     1.832   1_545 S
Si17   O129    1.600   1_545 S
Si18   C91     1.920   .     S
Si18   O95     1.626   .     S
Si18   C92     1.827   1_545 S
Si18   C93     1.848   1_545 S
Si19   C94     1.834   .     S
Si19   O95     1.634   .     S
Si19   C96     1.919   .     S
Si19   C109    1.895   .     S
Si20   O98     1.613   .     S
Si20   O146    1.608   .     S
Si20   O132    1.611   1_545 S
Si20   O136    1.539   1_545 S
Si21   C97     1.835   .     S
Si21   O98     1.605   .     S
Si21   C99     1.878   .     S
Si21   C116    1.856   .     S
Si22   C100    1.828   .     S
Si22   C101    1.892   .     S
Si22   C102    1.949   .     S
Si22   O106    1.628   .     S
Si23   C103    1.919   .     S
Si23   C104    1.885   .     S
Si23   C105    1.882   .     S
Si23   O126    1.593   .     S
Si24   O106    1.555   .     S
Si24   O127    1.568   .     S
Si24   C107    1.932   1_554 S
Si24   O120    1.612   1_554 S
Si25   C108    1.818   .     S
Si25   C110    1.829   .     S
Si25   C111    1.881   .     S
Si25   O155    1.605   .     S
Si26   C112    1.825   .     S
Si26   C113    1.821   .     S
Si26   O114    1.626   .     S
Si26   O123    1.643   .     S
Si27   C115    1.860   .     S
Si27   C117    1.866   .     S
Si27   C118    1.887   .     S
Si27   O124    1.603   .     S
Si28   O119    1.588   .     S
Si28   O120    1.599   .     S
Si28   C121    1.920   .     S
Si28   C122    1.913   .     S
Si29   O123    1.604   .     S
Si29   O124    1.555   .     S
Si29   C125    1.847   .     S
Si29   O156    1.628   .     S
Si30   O126    1.587   .     S
Si30   O127    1.575   .     S
Si30   O128    1.548   .     S
Si30   O169    1.623   .     S
Si31   O128    1.606   .     S
Si31   O129    1.628   .     S
Si31   O131    1.676   1_554 S
Si31   O188    1.669   1_554 S
Si32   O130    1.669   .     S
Si32   O131    1.670   .     S
Si32   O132    1.669   .     S
Si32   O133    1.648   .     S
Si33   C134    1.872   .     S
Si33   C135    1.867   .     S
Si33   O136    1.574   .     S
Si33   C137    1.882   .     S
Si34   C138    1.836   .     S
Si34   C139    1.932   .     S
Si34   O170    1.599   1_545 S
Si34   O174    1.591   1_545 S
Si35   C141    1.887   .     S
Si35   C142    1.880   .     S
Si35   C143    1.829   1_545 S
Si35   O181    1.624   1_545 S
Si36   C144    1.849   .     S
Si36   C145    1.889   .     S
Si36   O187    1.555   1_545 S
Si36   C193    1.822   1_545 S
Si37   O146    1.634   .     S
Si37   C147    1.782   .     S
Si37   C148    1.849   .     S
Si37   O160    1.656   .     S
Si38   C150    1.855   .     S
Si38   O167    1.589   .     S
Si38   O149    1.587   1_554 S
Si38   C151    1.835   1_554 S
Si39   C152    1.826   .     S
Si39   C153    1.850   .     S
Si39   O154    1.602   .     S
Si39   O159    1.560   .     S
Si40   O155    1.602   .     S
Si40   O156    1.631   .     S
Si40   O164    1.678   .     S
Si40   O175    1.631   .     S
Si41   C157    1.869   .     S
Si41   C158    1.881   .     S
Si41   O159    1.614   .     S
Si41   O176    1.565   .     S
Si42   O160    1.650   .     S
Si42   C161    1.895   .     S
Si42   O162    1.614   .     S
Si42   O165    1.615   .     S
Si43   O163    1.604   .     S
Si43   O164    1.660   .     S
Si43   O165    1.619   .     S
Si43   O183    1.624   .     S
Si44   C166    1.934   .     S
Si44   O167    1.588   .     S
Si44   O168    1.608   .     S
Si44   O173    1.624   .     S
Si45   O169    1.630   .     S
Si45   O170    1.605   .     S
Si45   C171    1.842   .     S
Si45   O179    1.595   .     S
Si46   O173    1.561   .     S
Si46   O174    1.572   .     S
Si46   O172    1.631   1_554 S
Si46   O186    1.627   1_554 S
Si47   O175    1.612   .     S
Si47   O176    1.527   .     S
Si47   O177    1.593   .     S
Si47   O180    1.651   .     S
Si48   O178    1.648   .     S
Si48   O179    1.586   .     S
Si48   O180    1.630   .     S
Si48   O181    1.606   .     S
Si49   C182    1.796   .     S
Si49   O183    1.631   .     S
Si49   O184    1.567   .     S
Si49   O191    1.600   .     S
Si50   C185    1.903   .     S
Si50   O186    1.668   .     S
Si50   O187    1.604   .     S
Si50   O188    1.600   .     S
Si51   O189    1.590   .     S
Si51   C190    1.860   .     S
Si51   O191    1.586   .     S
Si51   C192    1.888   .     S
C52    H194    1.122   .     S
C52    H195    1.140   .     S
C52    H196    1.056   .     S
C53    H197    1.119   .     S
C53    H198    1.115   .     S
C53    H199    1.127   .     S
C54    H200    1.092   .     S
C54    H201    1.181   .     S
C54    H202    1.128   .     S
C55    H203    1.091   .     S
C55    H204    1.123   .     S
C55    H205    1.047   .     S
C55    Si2     1.795   1_655 S
C56    H206    1.099   .     S
C56    H207    1.103   .     S
C56    H208    1.183   .     S
C58    H209    1.109   .     S
C58    H210    1.041   .     S
C58    H211    1.129   .     S
C59    H212    1.059   .     S
C59    H213    1.079   .     S
C59    H214    1.107   .     S
C60    H215    1.089   .     S
C60    H216    1.116   .     S
C60    H217    1.042   .     S
C61    H218    1.095   .     S
C61    H219    1.089   .     S
C61    H220    1.063   .     S
C62    H221    1.076   .     S
C62    H222    1.050   .     S
C62    H223    1.132   .     S
C63    H224    1.080   .     S
C63    H225    1.097   .     S
C63    H226    1.080   .     S
C64    H227    1.120   .     S
C64    H228    1.150   .     S
C64    H229    1.139   .     S
C65    H230    1.110   .     S
C65    H231    1.085   .     S
C65    H232    1.107   .     S
C67    H233    1.142   .     S
C67    H234    1.140   .     S
C67    H235    1.136   .     S
C68    H236    1.122   .     S
C68    H237    1.131   .     S
C68    H238    1.120   .     S
C69    H239    1.104   .     S
C69    H240    1.110   .     S
C69    H241    1.133   .     S
C70    H242    1.105   .     S
C70    H243    1.059   .     S
C70    H244    1.088   .     S
C71    H245    1.169   .     S
C71    H246    1.141   .     S
C71    H247    1.127   .     S
O72    Si1     1.648   1_565 S
O74    Si1     1.558   1_565 S
O75    Si3     1.604   1_565 S
C77    H248    1.125   .     S
C77    H249    1.071   .     S
C77    H250    1.131   .     S
O78    Si3     1.599   1_565 S
C79    H251    1.085   .     S
C79    H252    1.129   .     S
C79    H253    1.088   .     S
O82    Si11    1.569   1_556 S
C83    H254    1.113   .     S
C83    H255    1.136   .     S
C83    H256    1.078   .     S
C86    H257    1.126   .     S
C86    H258    1.108   .     S
C86    H259    1.123   .     S
C87    H260    1.125   .     S
C87    H261    1.123   .     S
C87    H262    1.146   .     S
C88    H263    1.129   .     S
C88    H264    1.093   .     S
C88    H265    1.112   .     S
C89    H266    1.135   .     S
C89    H267    1.112   .     S
C89    H268    1.133   .     S
C90    H269    1.163   .     S
C90    H270    1.041   .     S
C90    H271    1.070   .     S
C90    Si17    1.832   1_565 S
C91    H272    1.069   .     S
C91    H273    1.119   .     S
C91    H274    1.131   .     S
C92    H275    1.118   .     S
C92    H276    1.134   .     S
C92    H277    1.143   .     S
C92    Si18    1.827   1_565 S
C93    H278    1.110   .     S
C93    H279    1.050   .     S
C93    H280    1.102   .     S
C93    Si18    1.848   1_565 S
C94    H281    1.133   .     S
C94    H282    1.094   .     S
C94    H283    1.043   .     S
C96    H284    1.135   .     S
C96    H285    1.071   .     S
C96    H286    1.087   .     S
C97    H287    1.097   .     S
C97    H288    1.126   .     S
C97    H289    1.079   .     S
C99    H290    1.154   .     S
C99    H291    1.140   .     S
C99    H292    1.100   .     S
C100   H293    1.086   .     S
C100   H294    1.049   .     S
C100   H295    1.106   .     S
C101   H296    1.068   .     S
C101   H297    1.148   .     S
C101   H298    1.130   .     S
C102   H299    1.047   .     S
C102   H300    1.126   .     S
C102   H301    1.155   .     S
C103   H302    1.092   .     S
C103   H303    1.108   .     S
C103   H304    1.048   .     S
C104   H305    1.114   .     S
C104   H306    1.152   .     S
C104   H307    1.140   .     S
C105   H308    1.089   .     S
C105   H309    1.090   .     S
C105   H310    1.143   .     S
C107   H311    1.149   .     S
C107   H312    1.094   .     S
C107   H313    1.076   .     S
C107   Si24    1.932   1_556 S
C108   H314    1.058   .     S
C108   H315    1.133   .     S
C108   H316    1.124   .     S
C109   H317    1.126   .     S
C109   H318    1.103   .     S
C109   H319    1.107   .     S
C110   H320    1.093   .     S
C110   H321    1.097   .     S
C110   H322    1.090   .     S
C111   H323    1.110   .     S
C111   H324    1.086   .     S
C111   H325    1.095   .     S
C112   H326    1.109   .     S
C112   H327    1.052   .     S
C112   H328    1.120   .     S
C113   H329    1.088   .     S
C113   H330    1.090   .     S
C113   H331    1.103   .     S
C115   H332    1.122   .     S
C115   H333    1.130   .     S
C115   H334    1.087   .     S
C116   H335    1.135   .     S
C116   H336    1.116   .     S
C116   H337    1.107   .     S
C117   H338    1.107   .     S
C117   H339    1.084   .     S
C117   H340    1.113   .     S
C118   H341    1.092   .     S
C118   H342    1.157   .     S
C118   H343    1.112   .     S
O120   Si24    1.612   1_556 S
C121   H344    1.052   .     S
C121   H345    1.109   .     S
C121   H346    1.099   .     S
C122   H347    1.109   .     S
C122   H348    1.139   .     S
C122   H349    1.116   .     S
C125   H350    1.071   .     S
C125   H351    1.061   .     S
C125   H352    1.126   .     S
O129   Si17    1.600   1_565 S
O131   Si31    1.676   1_556 S
O132   Si20    1.611   1_565 S
O133   Si11    1.653   1_556 S
C134   H353    1.142   .     S
C134   H354    1.115   .     S
C134   H355    1.111   .     S
C135   H356    1.041   .     S
C135   H357    1.077   .     S
C135   H358    1.038   .     S
O136   Si20    1.539   1_565 S
C137   H359    1.088   .     S
C137   H360    1.100   .     S
C137   H361    1.082   .     S
C138   H362    1.160   .     S
C138   H363    1.123   .     S
C138   H364    1.082   .     S
C139   H365    1.103   .     S
C139   H366    1.149   .     S
C139   H367    1.075   .     S
C140   H368    1.085   .     S
C140   H369    1.128   .     S
C140   H370    1.082   .     S
C140   Si2     1.862   1_655 S
C141   H371    1.146   .     S
C141   H372    1.105   .     S
C141   H373    1.083   .     S
C142   H374    1.095   .     S
C142   H375    1.075   .     S
C142   H376    1.111   .     S
C143   H377    1.078   .     S
C143   H378    1.118   .     S
C143   H379    1.110   .     S
C143   Si35    1.829   1_565 S
C144   H380    1.067   .     S
C144   H381    1.054   .     S
C144   H382    1.076   .     S
C145   H383    1.090   .     S
C145   H384    1.139   .     S
C145   H385    1.106   .     S
C147   H386    1.094   .     S
C147   H387    1.035   .     S
C147   H388    1.129   .     S
C148   H389    1.148   .     S
C148   H390    1.070   .     S
C148   H391    1.133   .     S
O149   Si7     1.589   1_655 S
O149   Si38    1.587   1_556 S
C150   H392    1.138   .     S
C150   H393    1.075   .     S
C150   H394    1.148   .     S
C151   H395    1.149   .     S
C151   H396    1.099   .     S
C151   H397    1.104   .     S
C151   Si38    1.835   1_556 S
C152   H398    1.118   .     S
C152   H399    1.056   .     S
C152   H400    1.152   .     S
C153   H401    1.161   .     S
C153   H402    1.143   .     S
C153   H403    1.139   .     S
O154   Si5     1.600   1_655 S
C157   H404    1.133   .     S
C157   H405    1.069   .     S
C157   H406    1.082   .     S
C158   H407    1.145   .     S
C158   H408    1.087   .     S
C158   H409    1.078   .     S
C161   H410    1.088   .     S
C161   H411    1.039   .     S
C161   H412    1.110   .     S
O162   Si7     1.584   1_655 S
O163   Si5     1.639   1_655 S
C166   H413    1.142   .     S
C166   H414    1.146   .     S
C166   H415    1.157   .     S
O168   Si10    1.608   1_655 S
O170   Si34    1.599   1_565 S
C171   H416    1.106   .     S
C171   H417    1.060   .     S
C171   H418    1.105   .     S
O172   Si15    1.595   1_655 S
O172   Si46    1.631   1_556 S
O174   Si34    1.591   1_565 S
O177   Si12    1.634   1_655 S
O178   Si10    1.598   1_655 S
O181   Si35    1.624   1_565 S
C182   H419    1.109   .     S
C182   H420    1.109   .     S
C182   H421    1.100   .     S
O184   Si15    1.595   1_655 S
C185   H422    1.052   .     S
C185   H423    1.093   .     S
C185   H424    1.124   .     S
O186   Si46    1.627   1_556 S
O187   Si36    1.555   1_565 S
O188   Si31    1.669   1_556 S
O189   Si12    1.590   1_655 S
C190   H425    1.103   .     S
C190   H426    1.106   .     S
C190   H427    1.104   .     S
C192   H428    1.141   .     S
C192   H429    1.135   .     S
C192   H430    1.048   .     S
C193   H431    1.099   .     S
C193   H432    1.045   .     S
C193   H433    1.078   .     S
C193   Si36    1.822   1_565 S
