data_333-13-11-12-15-30-20
_audit_creation_date              2025-03-07
_audit_creation_method            'Materials Studio'
_symmetry_space_group_name_H-M    'P1'
_symmetry_Int_Tables_number       1
_symmetry_cell_setting            triclinic
loop_
_symmetry_equiv_pos_as_xyz
  x,y,z
_cell_length_a                    16.8381
_cell_length_b                    17.0168
_cell_length_c                    18.1251
_cell_angle_alpha                 88.5177
_cell_angle_beta                  92.0043
_cell_angle_gamma                 124.7733
loop_
_atom_site_label
_atom_site_type_symbol
_atom_site_fract_x
_atom_site_fract_y
_atom_site_fract_z
_atom_site_U_iso_or_equiv
_atom_site_adp_type
_atom_site_occupancy
Si1    Si    0.13098  -0.00469   0.12945   0.00000  Uiso   1.00
Si2    Si   -0.03747   0.21058   0.15467   0.00000  Uiso   1.00
Si3    Si    0.16098   0.17329   0.03798   0.00000  Uiso   1.00
Si4    Si    0.03587   0.02837   0.48950   0.00000  Uiso   1.00
Si5    Si    0.14774   0.01798   0.84012   0.00000  Uiso   1.00
Si6    Si    0.04196   0.18603   0.90416   0.00000  Uiso   1.00
Si7    Si    0.16930   0.35088   0.10367   0.00000  Uiso   1.00
Si8    Si    0.19774   0.49916  -0.00958   0.00000  Uiso   1.00
Si9    Si    0.14886   0.36628   0.41136   0.00000  Uiso   1.00
Si10   Si    0.04227   0.51347   0.50200   0.00000  Uiso   1.00
Si11   Si    0.19977   0.54359   0.32031   0.00000  Uiso   1.00
Si12   Si    0.19528   0.35962   0.79987   0.00000  Uiso   1.00
Si13   Si    0.00888   0.83883   0.24889   0.00000  Uiso   1.00
Si14   Si    0.11363   0.83034   0.04788   0.00000  Uiso   1.00
Si15   Si    0.19507   0.68808   0.41598   0.00000  Uiso   1.00
Si16   Si    0.19192   0.84563   0.32254   0.00000  Uiso   1.00
Si17   Si    0.16806   0.73075   0.75655   0.00000  Uiso   1.00
Si18   Si    0.22391   0.86281   0.61908   0.00000  Uiso   1.00
Si19   Si    0.50410  -0.00185   0.12000   0.00000  Uiso   1.00
Si20   Si    0.32224   0.14015   0.20319   0.00000  Uiso   1.00
Si21   Si    0.45232   0.10620   0.00978   0.00000  Uiso   1.00
Si22   Si    0.50715   0.01919   0.45937   0.00000  Uiso   1.00
Si23   Si    0.52713  -0.01064   0.72520   0.00000  Uiso   1.00
Si24   Si    0.31289   0.15756   0.94953   0.00000  Uiso   1.00
Si25   Si    0.32693   0.51677   0.21346   0.00000  Uiso   1.00
Si26   Si    0.50120   0.55337   0.00361   0.00000  Uiso   1.00
Si27   Si    0.44446   0.48163   0.32284   0.00000  Uiso   1.00
Si28   Si    0.45726   0.29597   0.83170   0.00000  Uiso   1.00
Si29   Si    0.35749   0.54855   0.88597   0.00000  Uiso   1.00
Si30   Si    0.50609   0.68223   0.12611   0.00000  Uiso   1.00
Si31   Si    0.34726   0.84851   0.23046   0.00000  Uiso   1.00
Si32   Si    0.51408   0.84884   0.02951   0.00000  Uiso   1.00
Si33   Si    0.35164   0.82338   0.52909   0.00000  Uiso   1.00
Si34   Si    0.48981   0.71853   0.78428   0.00000  Uiso   1.00
Si35   Si    0.50670   0.82748   0.63583   0.00000  Uiso   1.00
Si36   Si    0.82786  -0.06358   0.45228   0.00000  Uiso   1.00
Si37   Si    0.84139   0.02290   0.82916   0.00000  Uiso   1.00
Si38   Si    0.87004   0.16840   0.71882   0.00000  Uiso   1.00
Si39   Si    0.84281   0.53356   0.05666   0.00000  Uiso   1.00
Si40   Si    0.83787   0.36310   0.45037   0.00000  Uiso   1.00
Si41   Si    0.62745   0.46742   0.51580   0.00000  Uiso   1.00
Si42   Si    0.78619   0.45390   0.33673   0.00000  Uiso   1.00
Si43   Si    0.83746   0.30958   0.79069   0.00000  Uiso   1.00
Si44   Si    0.85338   0.69626   0.13658   0.00000  Uiso   1.00
Si45   Si    0.66951   0.80080   0.23953   0.00000  Uiso   1.00
Si46   Si    0.77699   0.60848   0.40303   0.00000  Uiso   1.00
Si47   Si    0.68889   0.83813   0.57999   0.00000  Uiso   1.00
Si48   Si    0.82615   0.79856   0.33222   0.00000  Uiso   1.00
Si49   Si    0.80954   0.70777   0.73966   0.00000  Uiso   1.00
Si50   Si    0.64674   0.86207   0.90419   0.00000  Uiso   1.00
Si51   Si    0.82521   0.88922   0.71103   0.00000  Uiso   1.00
C52    C    -0.00435   0.12797   0.19238   0.00000  Uiso   1.00
C53    C     0.90982   0.25331   0.21805   0.00000  Uiso   1.00
C54    C     0.86019   0.13659   0.08762   0.00000  Uiso   1.00
O55    O     0.11643   0.07719   0.09408   0.00000  Uiso   1.00
C56    C     0.04481  -0.07396   0.48974   0.00000  Uiso   1.00
C57    C     0.16065   0.11581   0.78569   0.00000  Uiso   1.00
C58    C     0.03313   0.96862   0.89221   0.00000  Uiso   1.00
O59    O     0.07750   0.15302   0.97429   0.00000  Uiso   1.00
C60    C     0.99043   0.25006   0.93146   0.00000  Uiso   1.00
O61    O     0.05965   0.30388   0.12200   0.00000  Uiso   1.00
O62    O     0.18584   0.26560   0.08752   0.00000  Uiso   1.00
O63    O     0.18983   0.41125   0.03066   0.00000  Uiso   1.00
C64    C     0.21776   0.57675   0.06368   0.00000  Uiso   1.00
C65    C     0.08094   0.47609   0.95276   0.00000  Uiso   1.00
C66    C     0.07899   0.08867   0.40172   0.00000  Uiso   1.00
C67    C     0.02653   0.29269   0.44338   0.00000  Uiso   1.00
C68    C     0.15486   0.30330   0.33194   0.00000  Uiso   1.00
C69    C     0.21694   0.35491   0.49505   0.00000  Uiso   1.00
C70    C     0.12692   0.49449   0.55384   0.00000  Uiso   1.00
C71    C     0.99015   0.54237   0.57724   0.00000  Uiso   1.00
C72    C     0.09019   0.48113   0.26207   0.00000  Uiso   1.00
O73    O     0.18089   0.46993   0.38640   0.00000  Uiso   1.00
O74    O     0.12899   0.25895   0.84634   0.00000  Uiso   1.00
C75    C     0.24393   0.35108   0.71088   0.00000  Uiso   1.00
C76    C     0.12366   0.40585   0.76910   0.00000  Uiso   1.00
O77    O     0.06086   0.93553   0.19732   0.00000  Uiso   1.00
C78    C     0.09134   0.74279   0.12407   0.00000  Uiso   1.00
O79    O     0.11063   0.91980   0.06816   0.00000  Uiso   1.00
C80    C     0.02254   0.75598   0.97299   0.00000  Uiso   1.00
C81    C     0.22980   0.87521   1.01558   0.00000  Uiso   1.00
O82    O     0.09264   0.59701   0.44301   0.00000  Uiso   1.00
O83    O     0.22993   0.64131   0.35770   0.00000  Uiso   1.00
O84    O     0.09230   0.82171   0.27964   0.00000  Uiso   1.00
O85    O     0.16598   0.75319   0.37405   0.00000  Uiso   1.00
C86    C     0.26197   0.95751   0.38291   0.00000  Uiso   1.00
C87    C     0.03629   0.67935   0.75186   0.00000  Uiso   1.00
C88    C     0.19732   0.65567   0.71272   0.00000  Uiso   1.00
C89    C     0.21247   0.75278   0.85193   0.00000  Uiso   1.00
C90    C     0.11639   0.78964   0.55398   0.00000  Uiso   1.00
O91    O     0.21273   0.82363   0.70388   0.00000  Uiso   1.00
C92    C     0.24142   0.98828   0.62427   0.00000  Uiso   1.00
C93    C     0.15731   0.93026   0.79234   0.00000  Uiso   1.00
C94    C     0.61897   0.10129   0.16174   0.00000  Uiso   1.00
O95    O     0.24175   0.05253   0.15337   0.00000  Uiso   1.00
C96    C     0.42559   0.13454   0.23490   0.00000  Uiso   1.00
C97    C     0.37014   0.25201   0.15137   0.00000  Uiso   1.00
C98    C     0.26489   0.14196   0.29004   0.00000  Uiso   1.00
O99    O     0.44953   0.04035   0.07483   0.00000  Uiso   1.00
C100   C     0.56515   0.22596   0.02918   0.00000  Uiso   1.00
C101   C     0.45113   0.05310   0.92535   0.00000  Uiso   1.00
C102   C     0.52512   0.04418   0.35791   0.00000  Uiso   1.00
C103   C     0.47780   0.10058   0.49690   0.00000  Uiso   1.00
C104   C     0.61985   1.04019   0.49987   0.00000  Uiso   1.00
C105   C     0.50318   0.07399   0.68951   0.00000  Uiso   1.00
C106   C     0.62219   0.05301   0.79778   0.00000  Uiso   1.00
C107   C     0.42373   0.89759   0.77622   0.00000  Uiso   1.00
O108   O     0.24243   0.06808   0.89820   0.00000  Uiso   1.00
O109   O     0.36537   0.12194   1.00428   0.00000  Uiso   1.00
O110   O     0.25421   0.18749   0.99916   0.00000  Uiso   1.00
O111   O     0.23800   0.42511   0.16665   0.00000  Uiso   1.00
O112   O     0.28964   0.56130   0.26960   0.00000  Uiso   1.00
C113   C     0.42423   0.43533   0.04486   0.00000  Uiso   1.00
C114   C     0.61161   0.56162   0.97733   0.00000  Uiso   1.00
O115   O     0.37484   0.47526   0.26126   0.00000  Uiso   1.00
C116   C     0.40619   0.36279   0.36552   0.00000  Uiso   1.00
C117   C     0.45546   0.56004   0.39779   0.00000  Uiso   1.00
C118   C     0.56310   0.52938   0.27846   0.00000  Uiso   1.00
O119   O     0.40069   0.24505   0.90720   0.00000  Uiso   1.00
C120   C     0.40581   0.22081   0.74832   0.00000  Uiso   1.00
C121   C     0.47033   0.40994   0.81354   0.00000  Uiso   1.00
C122   C     0.58858   0.33819   0.84698   0.00000  Uiso   1.00
O123   O     0.28929   0.44444   0.84938   0.00000  Uiso   1.00
O124   O     0.44604   0.55950   0.92998   0.00000  Uiso   1.00
O125   O     0.28900   0.55815   0.94045   0.00000  Uiso   1.00
O126   O     0.40407   0.60305   0.16163   0.00000  Uiso   1.00
O127   O     0.53162   0.63765   0.06010   0.00000  Uiso   1.00
C128   C     0.27713   0.73976   0.17104   0.00000  Uiso   1.00
C129   C     0.41359   0.82201   0.29999   0.00000  Uiso   1.00
O130   O     0.43369   0.93428   0.18395   0.00000  Uiso   1.00
O131   O     0.27309   0.86800   0.26448   0.00000  Uiso   1.00
O132   O     0.50205   0.77054   0.09300   0.00000  Uiso   1.00
O133   O     0.53821   0.94573   0.07174   0.00000  Uiso   1.00
C134   C     0.40261   0.79738   0.97251   0.00000  Uiso   1.00
O135   O     0.26665   0.73399   0.48825   0.00000  Uiso   1.00
O136   O     0.42337   0.90961   0.47451   0.00000  Uiso   1.00
O137   O     0.31173   0.86660   0.58226   0.00000  Uiso   1.00
O138   O     0.39824   0.63901   0.82845   0.00000  Uiso   1.00
C139   C     0.54155   0.65253   0.74909   0.00000  Uiso   1.00
O140   O     0.41649   0.79899   0.58202   0.00000  Uiso   1.00
O141   O     0.46975   0.75546   0.70626   0.00000  Uiso   1.00
O142   O     0.54842   0.93592   0.66462   0.00000  Uiso   1.00
C143   C     0.82938   0.02064   0.39510   0.00000  Uiso   1.00
O144   O     0.92682  -0.00982   0.49782   0.00000  Uiso   1.00
O145   O     0.94844   0.08906   0.86842   0.00000  Uiso   1.00
C146   C     1.11486   0.10476   0.56626   0.00000  Uiso   1.00
C147   C     0.98209   0.19009   0.68041   0.00000  Uiso   1.00
C148   C     0.78402   0.12032   0.64064   0.00000  Uiso   1.00
O149   O     0.82565   0.08371   0.77535   0.00000  Uiso   1.00
C150   C     0.93783   0.51109   1.06311   0.00000  Uiso   1.00
C151   C     0.72593   0.43475   0.10020   0.00000  Uiso   1.00
C152   C     0.82056   0.52882   0.95315   0.00000  Uiso   1.00
C153   C     0.77981   0.31401   0.54314   0.00000  Uiso   1.00
C154   C     0.79131   0.26268   0.38275   0.00000  Uiso   1.00
O155   O     0.95334   0.42142   0.46259   0.00000  Uiso   1.00
C156   C     0.57029   0.35133   0.46908   0.00000  Uiso   1.00
C157   C     0.70602   0.46853   0.59079   0.00000  Uiso   1.00
C158   C     0.53285   0.47353   0.55366   0.00000  Uiso   1.00
C159   C     0.88585   0.50040   0.27027   0.00000  Uiso   1.00
C160   C     0.66581   0.34191   0.29911   0.00000  Uiso   1.00
O161   O     0.81203   0.43203   0.41609   0.00000  Uiso   1.00
C162   C     0.80947   0.27053   0.88692   0.00000  Uiso   1.00
O163   O     0.88630   0.26386   0.75411   0.00000  Uiso   1.00
C164   C     0.72547   0.28328   0.74310   0.00000  Uiso   1.00
C165   C     0.91947   0.44311   0.78956   0.00000  Uiso   1.00
C166   C     0.73470   0.61808   0.17555   0.00000  Uiso   1.00
O167   O     0.87636   0.63571   0.08791   0.00000  Uiso   1.00
C168   C     0.85888   0.78998   0.07654   0.00000  Uiso   1.00
O169   O     0.93279   0.74857   0.20179   0.00000  Uiso   1.00
O170   O     0.59094   0.71814   0.18511   0.00000  Uiso   1.00
C171   C     0.70223   0.91470   0.19542   0.00000  Uiso   1.00
C172   C     0.60594   0.78194   0.32533   0.00000  Uiso   1.00
O173   O     0.69216   0.55447   0.45961   0.00000  Uiso   1.00
O174   O     0.76586   0.53282   0.34666   0.00000  Uiso   1.00
C175   C     0.90184   0.67675   0.44881   0.00000  Uiso   1.00
C176   C     0.65828   0.71584   0.56364   0.00000  Uiso   1.00
O177   O     0.73810   0.89485   0.50691   0.00000  Uiso   1.00
O178   O     0.58795   0.82737   0.58674   0.00000  Uiso   1.00
O179   O     0.93823   0.84374   0.30775   0.00000  Uiso   1.00
O180   O     0.76181   0.79993   0.26505   0.00000  Uiso   1.00
O181   O     0.77490   0.68862   0.35188   0.00000  Uiso   1.00
O182   O     0.82469   0.85447   0.40257   0.00000  Uiso   1.00
C183   C     0.69682   0.58011   0.75552   0.00000  Uiso   1.00
C184   C     0.87807   0.71296   0.65612   0.00000  Uiso   1.00
C185   C     0.88550   0.74300   0.82277   0.00000  Uiso   1.00
O186   O     0.56591   0.81183   0.83602   0.00000  Uiso   1.00
C187   C     0.68372   0.78386   0.93180   0.00000  Uiso   1.00
O188   O     0.74740   0.96562   0.88454   0.00000  Uiso   1.00
O189   O     0.59946   0.87507   0.97683   0.00000  Uiso   1.00
C190   C     0.94698   0.95279   0.67704   0.00000  Uiso   1.00
O191   O     0.75826   0.89619   0.65010   0.00000  Uiso   1.00
O192   O     0.78017   0.77894   0.72576   0.00000  Uiso   1.00
O193   O     0.83140   0.93919   0.78412   0.00000  Uiso   1.00
H194   H    -0.05495   0.08155   0.23999   0.00000  Uiso   1.00
H195   H     0.07335   0.16371   0.21000   0.00000  Uiso   1.00
H196   H    -0.02171   0.07258   0.14662   0.00000  Uiso   1.00
H197   H     0.83582   0.18872   0.23908   0.00000  Uiso   1.00
H198   H     0.90573   0.31120   0.19241   0.00000  Uiso   1.00
H199   H     0.95453   0.28724   0.27260   0.00000  Uiso   1.00
H200   H     0.80300   0.08040   0.12164   0.00000  Uiso   1.00
H201   H     0.87329   0.09529   0.05167   0.00000  Uiso   1.00
H202   H     0.83395   0.17559   0.06069   0.00000  Uiso   1.00
H203   H    -0.01377  -0.13263   0.52409   0.00000  Uiso   1.00
H204   H     0.11948  -0.05144   0.50488   0.00000  Uiso   1.00
H205   H     0.03643  -0.09307   0.43041   0.00000  Uiso   1.00
H206   H     0.17393   0.11621   0.72816   0.00000  Uiso   1.00
H207   H     0.22150   0.18582   0.81252   0.00000  Uiso   1.00
H208   H     0.09484   0.11202   0.78854   0.00000  Uiso   1.00
H209   H     0.05541   1.00131   0.94771   0.00000  Uiso   1.00
H210   H     0.00564   0.89651   0.91702   0.00000  Uiso   1.00
H211   H    -0.02805   0.97242   0.87051   0.00000  Uiso   1.00
H212   H     0.91791   0.19808   0.95202   0.00000  Uiso   1.00
H213   H     0.98677   0.28842   0.88438   0.00000  Uiso   1.00
H214   H     1.03173   0.29847   0.97729   0.00000  Uiso   1.00
H215   H     0.19117   0.61812   0.04185   0.00000  Uiso   1.00
H216   H     0.29917   0.63086   0.07144   0.00000  Uiso   1.00
H217   H     0.17456   0.53766   0.10957   0.00000  Uiso   1.00
H218   H     0.07287   0.44203   0.90110   0.00000  Uiso   1.00
H219   H     0.08613   0.54179   0.93632   0.00000  Uiso   1.00
H220   H     0.01698   0.43142   0.98761   0.00000  Uiso   1.00
H221   H     0.04324   0.12443   0.38002   0.00000  Uiso   1.00
H222   H     0.06188   0.03130   0.36155   0.00000  Uiso   1.00
H223   H     0.15805   0.14196   0.40778   0.00000  Uiso   1.00
H224   H     0.03148   0.30599   0.50365   0.00000  Uiso   1.00
H225   H     0.00214   0.22049   0.43151   0.00000  Uiso   1.00
H226   H    -0.01961   0.30895   0.40916   0.00000  Uiso   1.00
H227   H     0.21792   0.35829   0.30285   0.00000  Uiso   1.00
H228   H     0.08954   0.27519   0.29493   0.00000  Uiso   1.00
H229   H     0.17466   0.25825   0.35062   0.00000  Uiso   1.00
H230   H     0.23489   0.30538   0.48769   0.00000  Uiso   1.00
H231   H     0.17805   0.33344   0.54650   0.00000  Uiso   1.00
H232   H     0.28619   0.41950   0.51469   0.00000  Uiso   1.00
H233   H     0.17643   0.54614   0.60002   0.00000  Uiso   1.00
H234   H     0.17669   0.49394   0.51523   0.00000  Uiso   1.00
H235   H     0.08546   0.42362   0.57536   0.00000  Uiso   1.00
H236   H     0.94825   0.48342   0.61902   0.00000  Uiso   1.00
H237   H     0.94786   0.57101   0.56134   0.00000  Uiso   1.00
H238   H     1.05281   0.59917   0.60596   0.00000  Uiso   1.00
H239   H     0.08598   0.41730   0.24255   0.00000  Uiso   1.00
H240   H     0.08601   0.52239   0.20926   0.00000  Uiso   1.00
H241   H     0.02696   0.45159   0.29566   0.00000  Uiso   1.00
H242   H     0.17789   0.30208   0.67365   0.00000  Uiso   1.00
H243   H     0.28958   0.32450   0.70933   0.00000  Uiso   1.00
H244   H     0.28698   0.41653   0.68123   0.00000  Uiso   1.00
H245   H     0.15802   0.47671   0.79897   0.00000  Uiso   1.00
H246   H     0.04691   0.35865   0.77997   0.00000  Uiso   1.00
H247   H     0.13514   0.43044   0.71167   0.00000  Uiso   1.00
H248   H     0.10309   0.69133   0.10587   0.00000  Uiso   1.00
H249   H     0.02791   0.71224   0.15177   0.00000  Uiso   1.00
H250   H     0.14803   0.79065   0.16709   0.00000  Uiso   1.00
H251   H     0.01565   0.68704   0.97753   0.00000  Uiso   1.00
H252   H     0.04951   0.78533   0.91895   0.00000  Uiso   1.00
H253   H    -0.04490   0.74752   0.98061   0.00000  Uiso   1.00
H254   H     0.24569   0.92479   0.96946   0.00000  Uiso   1.00
H255   H     0.23213   0.81662   0.98925   0.00000  Uiso   1.00
H256   H     0.27842   0.91322   1.06248   0.00000  Uiso   1.00
H257   H     0.21252   0.97854   0.40273   0.00000  Uiso   1.00
H258   H     0.32317   1.02012   0.35462   0.00000  Uiso   1.00
H259   H     0.29695   0.94730   0.43437   0.00000  Uiso   1.00
H260   H     0.00334   0.64696   0.80834   0.00000  Uiso   1.00
H261   H    -0.00490   0.62170   0.71060   0.00000  Uiso   1.00
H262   H     0.02828   0.73515   0.73362   0.00000  Uiso   1.00
H263   H     0.21795   0.67532   0.65532   0.00000  Uiso   1.00
H264   H     0.13211   0.58069   0.72061   0.00000  Uiso   1.00
H265   H     0.25890   0.65911   0.73861   0.00000  Uiso   1.00
H266   H     0.14534   0.72552   0.88130   0.00000  Uiso   1.00
H267   H     0.27265   0.82193   0.86554   0.00000  Uiso   1.00
H268   H     0.22906   0.70186   0.86946   0.00000  Uiso   1.00
H269   H     0.12148   0.82889   0.50119   0.00000  Uiso   1.00
H270   H     0.05557   0.76753   0.58188   0.00000  Uiso   1.00
H271   H     0.11071   0.72611   0.53500   0.00000  Uiso   1.00
H272   H     0.27240   1.02461   0.57115   0.00000  Uiso   1.00
H273   H     0.29657   1.03854   0.66541   0.00000  Uiso   1.00
H274   H     0.17486   0.98189   0.63640   0.00000  Uiso   1.00
H275   H     0.15166   0.88035   0.83051   0.00000  Uiso   1.00
H276   H     0.23141   0.96734   0.77409   0.00000  Uiso   1.00
H277   H     0.10189   0.90594   0.74826   0.00000  Uiso   1.00
H278   H     0.66126   0.15008   0.11787   0.00000  Uiso   1.00
H279   H     0.66183   0.07436   0.19003   0.00000  Uiso   1.00
H280   H     0.60182   0.14156   0.19918   0.00000  Uiso   1.00
H281   H     0.41446   0.06409   0.22858   0.00000  Uiso   1.00
H282   H     0.43893   0.15793   0.29138   0.00000  Uiso   1.00
H283   H     0.48835   0.18824   0.20614   0.00000  Uiso   1.00
H284   H     0.43177   0.31342   0.18096   0.00000  Uiso   1.00
H285   H     0.31788   0.27151   0.15183   0.00000  Uiso   1.00
H286   H     0.38615   0.23922   0.09671   0.00000  Uiso   1.00
H287   H     0.20007   0.07127   0.29912   0.00000  Uiso   1.00
H288   H     0.22604   0.18027   0.28261   0.00000  Uiso   1.00
H289   H     0.31717   0.17199   0.33665   0.00000  Uiso   1.00
H290   H     0.57523   0.28094  -0.01212   0.00000  Uiso   1.00
H291   H     0.63184   0.22315   0.02829   0.00000  Uiso   1.00
H292   H     0.55938   0.25187   0.08325   0.00000  Uiso   1.00
H293   H     0.46890   0.10447   0.87939   0.00000  Uiso   1.00
H294   H     0.37862   0.00102   0.90944   0.00000  Uiso   1.00
H295   H     0.49880   0.02642   0.92284   0.00000  Uiso   1.00
H296   H     0.54826   0.11839   0.34737   0.00000  Uiso   1.00
H297   H     0.44837  -0.00766   0.33547   0.00000  Uiso   1.00
H298   H     0.57462   0.02513   0.33794   0.00000  Uiso   1.00
H299   H     0.43787   0.06352   0.55003   0.00000  Uiso   1.00
H300   H     0.43825   0.11385   0.45487   0.00000  Uiso   1.00
H301   H     0.54223   0.16367   0.52400   0.00000  Uiso   1.00
H302   H     0.62562   0.98232   0.47796   0.00000  Uiso   1.00
H303   H     0.60530   1.03905   0.55725   0.00000  Uiso   1.00
H304   H     0.68257   1.11467   0.48437   0.00000  Uiso   1.00
H305   H     0.51421   0.12473   0.72910   0.00000  Uiso   1.00
H306   H     0.42788   0.03319   0.66612   0.00000  Uiso   1.00
H307   H     0.55746   0.12123   0.64582   0.00000  Uiso   1.00
H308   H     0.62715   0.00022   0.82998   0.00000  Uiso   1.00
H309   H     0.60180   0.09239   0.83575   0.00000  Uiso   1.00
H310   H     0.68655   0.10576   0.76923   0.00000  Uiso   1.00
H311   H     0.44584   0.87424   0.82276   0.00000  Uiso   1.00
H312   H     0.37928   0.83555   0.73847   0.00000  Uiso   1.00
H313   H     0.38707   0.92800   0.79656   0.00000  Uiso   1.00
H314   H     0.34922   0.40288   0.03476   0.00000  Uiso   1.00
H315   H     0.43601   0.44012   0.10424   0.00000  Uiso   1.00
H316   H     0.43881   0.38376   0.02130   0.00000  Uiso   1.00
H317   H     0.66996   0.61616   1.00835   0.00000  Uiso   1.00
H318   H     0.62810   0.58081   0.91891   0.00000  Uiso   1.00
H319   H     0.60300   0.49051   0.98595   0.00000  Uiso   1.00
H320   H     0.43813   0.33876   0.32578   0.00000  Uiso   1.00
H321   H     0.32396   0.31315   0.36329   0.00000  Uiso   1.00
H322   H     0.43102   0.37295   0.42391   0.00000  Uiso   1.00
H323   H     0.43441   0.60596   0.37225   0.00000  Uiso   1.00
H324   H     0.53365   0.60589   0.41821   0.00000  Uiso   1.00
H325   H     0.40862   0.51334   0.44415   0.00000  Uiso   1.00
H326   H     0.59633   0.49816   0.30931   0.00000  Uiso   1.00
H327   H     0.60325   0.60256   0.27736   0.00000  Uiso   1.00
H328   H     0.54661   0.49781   0.22182   0.00000  Uiso   1.00
H329   H     0.37676   0.14624   0.76493   0.00000  Uiso   1.00
H330   H     0.46090   0.24488   0.70579   0.00000  Uiso   1.00
H331   H     0.35060   0.23340   0.72737   0.00000  Uiso   1.00
H332   H     0.50641   0.43016   0.75787   0.00000  Uiso   1.00
H333   H     0.51486   0.46343   0.85558   0.00000  Uiso   1.00
H334   H     0.39930   0.39667   0.79748   0.00000  Uiso   1.00
H335   H     0.61607   0.35553   0.79094   0.00000  Uiso   1.00
H336   H     0.59000   0.27403   0.86603   0.00000  Uiso   1.00
H337   H     0.62594   0.39562   0.88526   0.00000  Uiso   1.00
H338   H     0.32875   0.71713   0.16429   0.00000  Uiso   1.00
H339   H     0.25855   0.75987   0.11860   0.00000  Uiso   1.00
H340   H     0.20529   0.67693   0.19587   0.00000  Uiso   1.00
H341   H     0.49218   0.87701   0.29662   0.00000  Uiso   1.00
H342   H     0.40213   0.75488   0.28730   0.00000  Uiso   1.00
H343   H     0.38626   0.81643   0.35350   0.00000  Uiso   1.00
H344   H     0.33939   0.75978   1.00444   0.00000  Uiso   1.00
H345   H     0.38583   0.74732   0.92708   0.00000  Uiso   1.00
H346   H     0.39762   0.85505   0.94444   0.00000  Uiso   1.00
H347   H     0.61370   0.71265   0.73293   0.00000  Uiso   1.00
H348   H     0.49513   0.60716   0.70186   0.00000  Uiso   1.00
H349   H     0.54883   0.60931   0.79415   0.00000  Uiso   1.00
H350   H     0.76029  -0.00827   0.36205   0.00000  Uiso   1.00
H351   H     0.88700   0.05510   0.35739   0.00000  Uiso   1.00
H352   H     0.85110   0.08107   0.43284   0.00000  Uiso   1.00
H353   H     1.08791   0.14696   0.57484   0.00000  Uiso   1.00
H354   H     1.19004   0.14763   0.55017   0.00000  Uiso   1.00
H355   H     1.10246   0.05565   0.61193   0.00000  Uiso   1.00
H356   H     1.02598   0.26625   0.66130   0.00000  Uiso   1.00
H357   H     0.96917   0.15076   0.62801   0.00000  Uiso   1.00
H358   H     1.02446   0.17819   0.72410   0.00000  Uiso   1.00
H359   H     0.74821   0.04493   0.63794   0.00000  Uiso   1.00
H360   H     0.82441   0.14989   0.59206   0.00000  Uiso   1.00
H361   H     0.72523   0.12770   0.63349   0.00000  Uiso   1.00
H362   H     0.99681   0.55852   1.02984   0.00000  Uiso   1.00
H363   H     0.90698   0.43331   1.05077   0.00000  Uiso   1.00
H364   H     0.96686   0.52674   1.12076   0.00000  Uiso   1.00
H365   H     0.72684   0.36985   0.09759   0.00000  Uiso   1.00
H366   H     0.65853   0.42596   0.07795   0.00000  Uiso   1.00
H367   H     0.73201   0.44443   0.16086   0.00000  Uiso   1.00
H368   H     0.88951   0.56341   0.92100   0.00000  Uiso   1.00
H369   H     0.78999   0.56982   0.93653   0.00000  Uiso   1.00
H370   H     0.77176   0.45333   0.93328   0.00000  Uiso   1.00
H371   H     0.78442   0.36873   0.57756   0.00000  Uiso   1.00
H372   H     0.81800   0.28385   0.57291   0.00000  Uiso   1.00
H373   H     0.69996   0.25931   0.53802   0.00000  Uiso   1.00
H374   H     0.80798   0.21693   0.41260   0.00000  Uiso   1.00
H375   H     0.82405   0.28767   0.32720   0.00000  Uiso   1.00
H376   H     0.71365   0.21832   0.37579   0.00000  Uiso   1.00
H377   H     0.49662   0.29554   0.49379   0.00000  Uiso   1.00
H378   H     0.62254   0.33373   0.47280   0.00000  Uiso   1.00
H379   H     0.56256   0.37164   0.41226   0.00000  Uiso   1.00
H380   H     0.76285   0.47245   0.56290   0.00000  Uiso   1.00
H381   H     0.66389   0.39942   0.61666   0.00000  Uiso   1.00
H382   H     0.73505   0.52376   0.63162   0.00000  Uiso   1.00
H383   H     0.55807   0.52942   0.59602   0.00000  Uiso   1.00
H384   H     0.48238   0.40640   0.58392   0.00000  Uiso   1.00
H385   H     0.49299   0.47547   0.50586   0.00000  Uiso   1.00
H386   H     0.88087   0.44831   0.23782   0.00000  Uiso   1.00
H387   H     0.95075   0.53444   0.30154   0.00000  Uiso   1.00
H388   H     0.89257   0.55978   0.23971   0.00000  Uiso   1.00
H389   H     0.62621   0.28791   0.34203   0.00000  Uiso   1.00
H390   H     0.69301   0.31137   0.26107   0.00000  Uiso   1.00
H391   H     0.61512   0.35994   0.27195   0.00000  Uiso   1.00
H392   H     0.74514   0.27546   0.90274   0.00000  Uiso   1.00
H393   H     0.86985   0.31654   0.92748   0.00000  Uiso   1.00
H394   H     0.78159   0.19661   0.90454   0.00000  Uiso   1.00
H395   H     0.72084   0.24762   0.69097   0.00000  Uiso   1.00
H396   H     0.71757   0.34122   0.72657   0.00000  Uiso   1.00
H397   H     0.66211   0.23555   0.77689   0.00000  Uiso   1.00
H398   H     0.98906   0.46654   0.81286   0.00000  Uiso   1.00
H399   H     0.88968   0.47289   0.82715   0.00000  Uiso   1.00
H400   H     0.92142   0.46128   0.73263   0.00000  Uiso   1.00
H401   H     0.74088   0.57237   0.21328   0.00000  Uiso   1.00
H402   H     0.67646   0.57346   0.13387   0.00000  Uiso   1.00
H403   H     0.70697   0.65761   0.19707   0.00000  Uiso   1.00
H404   H     0.84527   0.77394   0.01679   0.00000  Uiso   1.00
H405   H     0.92382   0.85851   0.08133   0.00000  Uiso   1.00
H406   H     0.80133   0.79865   0.09333   0.00000  Uiso   1.00
H407   H     0.75565   0.97365   0.23007   0.00000  Uiso   1.00
H408   H     0.64222   0.91950   0.18797   0.00000  Uiso   1.00
H409   H     0.73281   0.91539   0.13789   0.00000  Uiso   1.00
H410   H     0.62662   0.74327   0.36698   0.00000  Uiso   1.00
H411   H     0.53084   0.74328   0.30795   0.00000  Uiso   1.00
H412   H     0.62985   0.85208   0.35079   0.00000  Uiso   1.00
H413   H     0.89417   0.70535   0.49958   0.00000  Uiso   1.00
H414   H     0.95953   0.73402   0.41575   0.00000  Uiso   1.00
H415   H     0.91628   0.62037   0.45983   0.00000  Uiso   1.00
H416   H     0.66323   0.68286   0.61592   0.00000  Uiso   1.00
H417   H     0.70214   0.71245   0.52306   0.00000  Uiso   1.00
H418   H     0.58504   0.67219   0.54409   0.00000  Uiso   1.00
H419   H     0.71709   0.52857   0.77363   0.00000  Uiso   1.00
H420   H     0.65002   0.54779   0.70580   0.00000  Uiso   1.00
H421   H     0.64860   0.57554   0.79696   0.00000  Uiso   1.00
H422   H     0.84128   0.70563   0.60402   0.00000  Uiso   1.00
H423   H     0.88748   0.65502   0.66239   0.00000  Uiso   1.00
H424   H     0.95224   0.78190   0.65657   0.00000  Uiso   1.00
H425   H     0.84796   0.76127   0.86149   0.00000  Uiso   1.00
H426   H     0.96129   0.81034   0.81523   0.00000  Uiso   1.00
H427   H     0.89544   0.68669   0.84246   0.00000  Uiso   1.00
H428   H     0.67875   0.76738   0.99274   0.00000  Uiso   1.00
H429   H     0.75702   0.81265   0.91239   0.00000  Uiso   1.00
H430   H     0.64191   0.72471   0.89953   0.00000  Uiso   1.00
H431   H     0.95201   0.91733   0.62840   0.00000  Uiso   1.00
H432   H     0.99292   0.95181   0.72316   0.00000  Uiso   1.00
H433   H     0.96759   1.02662   0.66096   0.00000  Uiso   1.00
loop_
_geom_bond_atom_site_label_1
_geom_bond_atom_site_label_2
_geom_bond_distance
_geom_bond_site_symmetry_2
_ccdc_geom_bond_type
Si1    O55     1.657   .     S
Si1    O95     1.584   .     S
Si1    O77     1.615   1_545 S
Si1    O79     1.596   1_545 S
Si2    C52     1.890   .     S
Si2    O61     1.614   .     S
Si2    C53     1.867   1_455 S
Si2    C54     1.868   1_455 S
Si3    O55     1.685   .     S
Si3    O62     1.657   .     S
Si3    O59     1.668   1_554 S
Si3    O110    1.629   1_554 S
Si4    C56     1.831   .     S
Si4    C66     1.805   .     S
Si4    O144    1.572   1_455 S
Si4    C146    1.840   1_455 S
Si5    C57     1.819   .     S
Si5    O108    1.660   .     S
Si5    C58     1.886   1_545 S
Si5    C93     1.832   1_545 S
Si6    O59     1.607   .     S
Si6    O74     1.659   .     S
Si6    C60     1.822   1_455 S
Si6    O145    1.625   1_455 S
Si7    O61     1.582   .     S
Si7    O62     1.661   .     S
Si7    O63     1.576   .     S
Si7    O111    1.598   .     S
Si8    O63     1.585   .     S
Si8    C64     1.781   .     S
Si8    C65     1.878   1_554 S
Si8    O125    1.575   1_554 S
Si9    C67     1.803   .     S
Si9    C68     1.856   .     S
Si9    C69     1.941   .     S
Si9    O73     1.580   .     S
Si10   C70     1.853   .     S
Si10   O82     1.579   .     S
Si10   C71     1.866   1_455 S
Si10   O155    1.586   1_455 S
Si11   C72     1.826   .     S
Si11   O73     1.613   .     S
Si11   O83     1.598   .     S
Si11   O112    1.670   .     S
Si12   O74     1.643   .     S
Si12   C75     1.880   .     S
Si12   C76     1.843   .     S
Si12   O123    1.660   .     S
Si13   O77     1.638   .     S
Si13   O84     1.665   .     S
Si13   O169    1.574   1_455 S
Si13   O179    1.663   1_455 S
Si14   C78     1.887   .     S
Si14   O79     1.604   .     S
Si14   C80     1.878   1_554 S
Si14   C81     1.762   1_554 S
Si15   O82     1.609   .     S
Si15   O83     1.647   .     S
Si15   O85     1.611   .     S
Si15   O135    1.627   .     S
Si16   O84     1.652   .     S
Si16   O85     1.645   .     S
Si16   C86     1.916   .     S
Si16   O131    1.615   .     S
Si17   C87     1.863   .     S
Si17   C88     1.818   .     S
Si17   C89     1.820   .     S
Si17   O91     1.610   .     S
Si18   C90     1.891   .     S
Si18   O91     1.633   .     S
Si18   C92     1.986   .     S
Si18   O137    1.611   .     S
Si19   C94     1.868   .     S
Si19   O99     1.643   .     S
Si19   O130    1.578   1_545 S
Si19   O133    1.597   1_545 S
Si20   O95     1.598   .     S
Si20   C96     1.867   .     S
Si20   C97     1.834   .     S
Si20   C98     1.885   .     S
Si21   O99     1.589   .     S
Si21   C100    1.860   .     S
Si21   C101    1.791   1_554 S
Si21   O109    1.631   1_554 S
Si22   C102    1.873   .     S
Si22   C103    1.865   .     S
Si22   C104    1.847   1_545 S
Si22   O136    1.595   1_545 S
Si23   C105    1.803   .     S
Si23   C106    1.848   .     S
Si23   C107    1.806   1_545 S
Si23   O142    1.616   1_545 S
Si24   O108    1.590   .     S
Si24   O109    1.628   .     S
Si24   O110    1.645   .     S
Si24   O119    1.581   .     S
Si25   O111    1.646   .     S
Si25   O112    1.622   .     S
Si25   O115    1.571   .     S
Si25   O126    1.601   .     S
Si26   C113    1.815   .     S
Si26   O127    1.603   .     S
Si26   C114    1.861   1_554 S
Si26   O124    1.634   1_554 S
Si27   O115    1.550   .     S
Si27   C116    1.890   .     S
Si27   C117    1.859   .     S
Si27   C118    1.877   .     S
Si28   O119    1.618   .     S
Si28   C120    1.848   .     S
Si28   C121    1.845   .     S
Si28   C122    1.907   .     S
Si29   O123    1.608   .     S
Si29   O124    1.582   .     S
Si29   O125    1.623   .     S
Si29   O138    1.640   .     S
Si30   O126    1.604   .     S
Si30   O127    1.627   .     S
Si30   O132    1.640   .     S
Si30   O170    1.578   .     S
Si31   C128    1.871   .     S
Si31   C129    1.867   .     S
Si31   O130    1.599   .     S
Si31   O131    1.608   .     S
Si32   O132    1.664   .     S
Si32   O133    1.658   .     S
Si32   C134    1.842   1_554 S
Si32   O189    1.587   1_554 S
Si33   O135    1.553   .     S
Si33   O136    1.605   .     S
Si33   O137    1.602   .     S
Si33   O140    1.646   .     S
Si34   O138    1.581   .     S
Si34   C139    1.902   .     S
Si34   O141    1.634   .     S
Si34   O186    1.648   .     S
Si35   O140    1.605   .     S
Si35   O141    1.620   .     S
Si35   O142    1.648   .     S
Si35   O178    1.659   .     S
Si36   C143    1.735   .     S
Si36   O144    1.581   .     S
Si36   O177    1.617   1_545 S
Si36   O182    1.654   1_545 S
Si37   O145    1.631   .     S
Si37   O149    1.528   .     S
Si37   O188    1.662   1_545 S
Si37   O193    1.582   1_545 S
Si38   C147    1.861   .     S
Si38   C148    1.828   .     S
Si38   O149    1.560   .     S
Si38   O163    1.630   .     S
Si39   C151    1.894   .     S
Si39   O167    1.603   .     S
Si39   C150    1.844   1_554 S
Si39   C152    1.895   1_554 S
Si40   C153    1.895   .     S
Si40   C154    1.884   .     S
Si40   O155    1.611   .     S
Si40   O161    1.574   .     S
Si41   C156    1.846   .     S
Si41   C157    1.856   .     S
Si41   C158    1.813   .     S
Si41   O173    1.605   .     S
Si42   C159    1.863   .     S
Si42   C160    1.942   .     S
Si42   O161    1.584   .     S
Si42   O174    1.579   .     S
Si43   C162    1.829   .     S
Si43   O163    1.586   .     S
Si43   C164    1.856   .     S
Si43   C165    1.868   .     S
Si44   C166    1.811   .     S
Si44   O167    1.586   .     S
Si44   C168    1.867   .     S
Si44   O169    1.601   .     S
Si45   O170    1.600   .     S
Si45   C171    1.853   .     S
Si45   C172    1.835   .     S
Si45   O180    1.614   .     S
Si46   O173    1.579   .     S
Si46   O174    1.586   .     S
Si46   C175    1.897   .     S
Si46   O181    1.645   .     S
Si47   C176    1.866   .     S
Si47   O177    1.572   .     S
Si47   O178    1.611   .     S
Si47   O191    1.612   .     S
Si48   O179    1.654   .     S
Si48   O180    1.610   .     S
Si48   O181    1.587   .     S
Si48   O182    1.620   .     S
Si49   C183    1.925   .     S
Si49   C184    1.906   .     S
Si49   C185    1.817   .     S
Si49   O192    1.560   .     S
Si50   O186    1.649   .     S
Si50   C187    1.816   .     S
Si50   O188    1.645   .     S
Si50   O189    1.645   .     S
Si51   C190    1.810   .     S
Si51   O191    1.601   .     S
Si51   O192    1.592   .     S
Si51   O193    1.561   .     S
C52    H194    1.159   .     S
C52    H195    1.121   .     S
C52    H196    1.171   .     S
C53    H197    1.164   .     S
C53    H198    1.115   .     S
C53    H199    1.166   .     S
C53    Si2     1.867   1_655 S
C54    H200    1.087   .     S
C54    H201    1.085   .     S
C54    H202    1.085   .     S
C54    Si2     1.868   1_655 S
C56    H203    1.116   .     S
C56    H204    1.111   .     S
C56    H205    1.112   .     S
C57    H206    1.073   .     S
C57    H207    1.144   .     S
C57    H208    1.076   .     S
C58    H209    1.108   .     S
C58    H210    1.123   .     S
C58    H211    1.125   .     S
C58    Si5     1.886   1_565 S
O59    Si3     1.668   1_556 S
C60    H212    1.093   .     S
C60    H213    1.082   .     S
C60    H214    1.093   .     S
C60    Si6     1.822   1_655 S
C64    H215    1.089   .     S
C64    H216    1.140   .     S
C64    H217    1.061   .     S
C65    H218    1.077   .     S
C65    H219    1.104   .     S
C65    H220    1.107   .     S
C65    Si8     1.878   1_556 S
C66    H221    1.130   .     S
C66    H222    1.126   .     S
C66    H223    1.107   .     S
C67    H224    1.112   .     S
C67    H225    1.075   .     S
C67    H226    1.126   .     S
C68    H227    1.078   .     S
C68    H228    1.119   .     S
C68    H229    1.041   .     S
C69    H230    1.058   .     S
C69    H231    1.088   .     S
C69    H232    1.106   .     S
C70    H233    1.150   .     S
C70    H234    1.115   .     S
C70    H235    1.062   .     S
C71    H236    1.126   .     S
C71    H237    1.096   .     S
C71    H238    1.069   .     S
C71    Si10    1.866   1_655 S
C72    H239    1.114   .     S
C72    H240    1.196   .     S
C72    H241    1.084   .     S
C75    H242    1.143   .     S
C75    H243    1.093   .     S
C75    H244    1.063   .     S
C76    H245    1.139   .     S
C76    H246    1.086   .     S
C76    H247    1.093   .     S
O77    Si1     1.615   1_565 S
C78    H248    1.064   .     S
C78    H249    1.026   .     S
C78    H250    1.130   .     S
O79    Si1     1.596   1_565 S
C80    H251    1.112   .     S
C80    H252    1.078   .     S
C80    H253    1.074   .     S
C80    Si14    1.878   1_556 S
C81    H254    1.097   .     S
C81    H255    1.137   .     S
C81    H256    1.089   .     S
C81    Si14    1.762   1_556 S
C86    H257    1.148   .     S
C86    H258    1.103   .     S
C86    H259    1.147   .     S
C87    H260    1.149   .     S
C87    H261    1.108   .     S
C87    H262    1.075   .     S
C88    H263    1.091   .     S
C88    H264    1.121   .     S
C88    H265    1.094   .     S
C89    H266    1.099   .     S
C89    H267    1.053   .     S
C89    H268    1.089   .     S
C90    H269    1.130   .     S
C90    H270    1.016   .     S
C90    H271    1.093   .     S
C92    H272    1.103   .     S
C92    H273    1.108   .     S
C92    H274    1.092   .     S
C93    H275    1.045   .     S
C93    H276    1.088   .     S
C93    H277    1.098   .     S
C93    Si5     1.832   1_565 S
C94    H278    1.077   .     S
C94    H279    1.154   .     S
C94    H280    1.130   .     S
C96    H281    1.111   .     S
C96    H282    1.077   .     S
C96    H283    1.066   .     S
C97    H284    1.100   .     S
C97    H285    1.104   .     S
C97    H286    1.095   .     S
C98    H287    1.082   .     S
C98    H288    1.161   .     S
C98    H289    1.099   .     S
C100   H290    1.121   .     S
C100   H291    1.152   .     S
C100   H292    1.114   .     S
C101   H293    1.109   .     S
C101   H294    1.055   .     S
C101   H295    1.128   .     S
C101   Si21    1.791   1_556 S
C102   H296    1.102   .     S
C102   H297    1.138   .     S
C102   H298    1.125   .     S
C103   H299    1.143   .     S
C103   H300    1.096   .     S
C103   H301    1.110   .     S
C104   H302    1.126   .     S
C104   H303    1.074   .     S
C104   H304    1.130   .     S
C104   Si22    1.847   1_565 S
C105   H305    1.065   .     S
C105   H306    1.115   .     S
C105   H307    1.135   .     S
C106   H308    1.100   .     S
C106   H309    1.159   .     S
C106   H310    1.074   .     S
C107   H311    1.067   .     S
C107   H312    1.115   .     S
C107   H313    1.084   .     S
C107   Si23    1.806   1_565 S
O109   Si21    1.631   1_556 S
O110   Si3     1.629   1_556 S
C113   H314    1.062   .     S
C113   H315    1.084   .     S
C113   H316    1.134   .     S
C114   H317    1.045   .     S
C114   H318    1.097   .     S
C114   H319    1.141   .     S
C114   Si26    1.861   1_556 S
C116   H320    1.126   .     S
C116   H321    1.138   .     S
C116   H322    1.105   .     S
C117   H323    1.112   .     S
C117   H324    1.135   .     S
C117   H325    1.121   .     S
C118   H326    1.100   .     S
C118   H327    1.024   .     S
C118   H328    1.122   .     S
C120   H329    1.106   .     S
C120   H330    1.106   .     S
C120   H331    1.119   .     S
C121   H332    1.137   .     S
C121   H333    1.090   .     S
C121   H334    1.112   .     S
C122   H335    1.093   .     S
C122   H336    1.150   .     S
C122   H337    1.065   .     S
O124   Si26    1.634   1_556 S
O125   Si8     1.575   1_556 S
C128   H338    1.145   .     S
C128   H339    1.097   .     S
C128   H340    1.161   .     S
C129   H341    1.105   .     S
C129   H342    1.074   .     S
C129   H343    1.067   .     S
O130   Si19    1.578   1_565 S
O133   Si19    1.597   1_565 S
C134   H344    1.061   .     S
C134   H345    1.109   .     S
C134   H346    1.138   .     S
C134   Si32    1.842   1_556 S
O136   Si22    1.595   1_565 S
C139   H347    1.095   .     S
C139   H348    1.113   .     S
C139   H349    1.135   .     S
O142   Si23    1.616   1_565 S
C143   H350    1.126   .     S
C143   H351    1.063   .     S
C143   H352    1.118   .     S
O144   Si4     1.572   1_655 S
O145   Si6     1.625   1_655 S
C146   H353    1.062   .     S
C146   H354    1.087   .     S
C146   H355    1.098   .     S
C146   Si4     1.840   1_655 S
C147   H356    1.117   .     S
C147   H357    1.118   .     S
C147   H358    1.138   .     S
C148   H359    1.063   .     S
C148   H360    1.058   .     S
C148   H361    1.070   .     S
C150   H362    1.051   .     S
C150   H363    1.138   .     S
C150   H364    1.110   .     S
C150   Si39    1.844   1_556 S
C151   H365    1.116   .     S
C151   H366    1.118   .     S
C151   H367    1.109   .     S
C152   H368    1.133   .     S
C152   H369    1.109   .     S
C152   H370    1.120   .     S
C152   Si39    1.895   1_556 S
C153   H371    1.098   .     S
C153   H372    1.143   .     S
C153   H373    1.118   .     S
C154   H374    1.093   .     S
C154   H375    1.117   .     S
C154   H376    1.078   .     S
O155   Si10    1.586   1_655 S
C156   H377    1.146   .     S
C156   H378    1.079   .     S
C156   H379    1.105   .     S
C157   H380    1.065   .     S
C157   H381    1.072   .     S
C157   H382    1.075   .     S
C158   H383    1.108   .     S
C158   H384    1.105   .     S
C158   H385    1.089   .     S
C159   H386    1.038   .     S
C159   H387    1.050   .     S
C159   H388    1.089   .     S
C160   H389    1.093   .     S
C160   H390    1.126   .     S
C160   H391    1.152   .     S
C162   H392    1.179   .     S
C162   H393    1.121   .     S
C162   H394    1.105   .     S
C164   H395    1.112   .     S
C164   H396    1.100   .     S
C164   H397    1.097   .     S
C165   H398    1.073   .     S
C165   H399    1.142   .     S
C165   H400    1.066   .     S
C166   H401    1.069   .     S
C166   H402    1.112   .     S
C166   H403    1.099   .     S
C168   H404    1.107   .     S
C168   H405    1.052   .     S
C168   H406    1.113   .     S
O169   Si13    1.574   1_655 S
C171   H407    1.083   .     S
C171   H408    1.063   .     S
C171   H409    1.176   .     S
C172   H410    1.158   .     S
C172   H411    1.079   .     S
C172   H412    1.126   .     S
C175   H413    1.097   .     S
C175   H414    1.088   .     S
C175   H415    1.128   .     S
C176   H416    1.114   .     S
C176   H417    1.086   .     S
C176   H418    1.066   .     S
O177   Si36    1.617   1_565 S
O179   Si13    1.663   1_655 S
O182   Si36    1.654   1_565 S
C183   H419    1.146   .     S
C183   H420    1.103   .     S
C183   H421    1.094   .     S
C184   H422    1.081   .     S
C184   H423    1.087   .     S
C184   H424    1.125   .     S
C185   H425    1.120   .     S
C185   H426    1.139   .     S
C185   H427    1.111   .     S
C187   H428    1.127   .     S
C187   H429    1.104   .     S
C187   H430    1.022   .     S
O188   Si37    1.662   1_565 S
O189   Si32    1.587   1_556 S
C190   H431    1.113   .     S
C190   H432    1.125   .     S
C190   H433    1.129   .     S
O193   Si37    1.582   1_565 S
