data_333-13-11-12-15-30-14
_audit_creation_date              2025-03-07
_audit_creation_method            'Materials Studio'
_symmetry_space_group_name_H-M    'P1'
_symmetry_Int_Tables_number       1
_symmetry_cell_setting            triclinic
loop_
_symmetry_equiv_pos_as_xyz
  x,y,z
_cell_length_a                    15.5219
_cell_length_b                    16.9387
_cell_length_c                    19.7053
_cell_angle_alpha                 96.8085
_cell_angle_beta                  93.3301
_cell_angle_gamma                 116.4661
loop_
_atom_site_label
_atom_site_type_symbol
_atom_site_fract_x
_atom_site_fract_y
_atom_site_fract_z
_atom_site_U_iso_or_equiv
_atom_site_adp_type
_atom_site_occupancy
Si1    Si    0.24358   0.02510   0.07177   0.00000  Uiso   1.00
Si2    Si   -0.33585  -0.00340   0.31203   0.00000  Uiso   1.00
Si3    Si    0.16396   0.14337   0.14087   0.00000  Uiso   1.00
Si4    Si    0.00282   0.07862   0.58628   0.00000  Uiso   1.00
Si5    Si   -0.00325   0.06012   0.90793   0.00000  Uiso   1.00
Si6    Si   -0.06221   0.50445   0.25238   0.00000  Uiso   1.00
Si7    Si    0.07299   0.29334   0.33972   0.00000  Uiso   1.00
Si8    Si   -0.01510   0.45198   0.57880   0.00000  Uiso   1.00
Si9    Si    0.09409   0.47901   0.33266   0.00000  Uiso   1.00
Si10   Si    0.23302   0.41610   0.75810   0.00000  Uiso   1.00
Si11   Si    0.03384   0.52560   0.98621   0.00000  Uiso   1.00
Si12   Si    0.19289   0.52345   0.65594   0.00000  Uiso   1.00
Si13   Si    0.30617   0.80642   0.07575   0.00000  Uiso   1.00
Si14   Si    0.18232   0.85012  -0.02084   0.00000  Uiso   1.00
Si15   Si    0.10476   0.57958   0.47768   0.00000  Uiso   1.00
Si16   Si   -0.03221   0.77102   0.60500   0.00000  Uiso   1.00
Si17   Si    0.00987   0.79228   0.87450   0.00000  Uiso   1.00
Si18   Si    0.54712  -0.01030   0.68364   0.00000  Uiso   1.00
Si19   Si    0.35200   0.21720   0.77836   0.00000  Uiso   1.00
Si20   Si    0.48076   0.37279   0.00268   0.00000  Uiso   1.00
Si21   Si    0.54840   0.55075  -0.05158   0.00000  Uiso   1.00
Si22   Si    0.36692   0.51011   0.58448   0.00000  Uiso   1.00
Si23   Si    0.47644   0.47335   0.36680   0.00000  Uiso   1.00
Si24   Si    0.53770   0.38423   0.76616   0.00000  Uiso   1.00
Si25   Si    0.39209   0.57015   0.84894   0.00000  Uiso   1.00
Si26   Si    0.53291   0.53372   0.69592   0.00000  Uiso   1.00
Si27   Si    0.54211   0.65239   0.08682   0.00000  Uiso   1.00
Si28   Si    0.51122   0.61936   0.49206   0.00000  Uiso   1.00
Si29   Si    0.30298   0.74059   0.53929   0.00000  Uiso   1.00
Si30   Si    0.51029   0.69860   0.76180   0.00000  Uiso   1.00
Si31   Si    0.32746   0.88099   0.87757   0.00000  Uiso   1.00
Si32   Si    0.48589   0.78882   0.64238   0.00000  Uiso   1.00
Si33   Si    0.65707   0.25793   0.17592   0.00000  Uiso   1.00
Si34   Si    0.80405  -0.06594   0.51050   0.00000  Uiso   1.00
Si35   Si    0.73013   0.06551   0.46455   0.00000  Uiso   1.00
Si36   Si    0.84400  -0.07400   0.79577   0.00000  Uiso   1.00
Si37   Si    0.67886   0.14776   0.79840   0.00000  Uiso   1.00
Si38   Si    0.81593   0.40138   0.11302   0.00000  Uiso   1.00
Si39   Si    0.83464   0.51686   0.00382   0.00000  Uiso   1.00
Si40   Si    0.81536   0.26964   0.50049   0.00000  Uiso   1.00
Si41   Si    0.67778   0.51356   0.60064   0.00000  Uiso   1.00
Si42   Si    0.81700   0.31568   0.74838   0.00000  Uiso   1.00
Si43   Si    0.69581   0.51397   0.88007   0.00000  Uiso   1.00
Si44   Si    0.83865   0.47290   0.67242   0.00000  Uiso   1.00
Si45   Si    0.88238   0.69564   0.09236   0.00000  Uiso   1.00
Si46   Si    0.80240   0.62081   0.50516   0.00000  Uiso   1.00
Si47   Si    0.66701   0.77457   0.59120   0.00000  Uiso   1.00
Si48   Si    0.88880   0.90780   0.37919   0.00000  Uiso   1.00
Si49   Si    0.84808   0.62213   0.78127   0.00000  Uiso   1.00
Si50   Si    0.66582   0.84748   0.87151   0.00000  Uiso   1.00
Si51   Si    0.81373   0.75544   0.69938   0.00000  Uiso   1.00
C52    C     0.34190   0.08798   0.02309   0.00000  Uiso   1.00
C53    C     0.29461   1.01811   0.15946   0.00000  Uiso   1.00
C54    C    -0.26236   0.01407   0.24010   0.00000  Uiso   1.00
C55    C    -0.42156   0.04072   0.29718   0.00000  Uiso   1.00
C56    C     0.59404  -0.12555   0.31974   0.00000  Uiso   1.00
O57    O     0.18076   0.07731   0.08423   0.00000  Uiso   1.00
C58    C     0.07812   0.08544   0.20105   0.00000  Uiso   1.00
C59    C     0.04147   0.06371   0.67150   0.00000  Uiso   1.00
C60    C     0.97438   0.17490   0.59114   0.00000  Uiso   1.00
C61    C    -0.07854   0.02994   0.98367   0.00000  Uiso   1.00
C62    C     0.11907   0.21626   1.10458   0.00000  Uiso   1.00
C63    C     1.02506   0.18127   0.90062   0.00000  Uiso   1.00
C64    C     0.82503   0.49872   0.29601   0.00000  Uiso   1.00
C65    C     0.11024   0.10429   0.54183   0.00000  Uiso   1.00
C66    C    -0.03190   0.21863   0.26933   0.00000  Uiso   1.00
C67    C     0.17698   0.26488   0.34271   0.00000  Uiso   1.00
O68    O    -0.01301   0.46018   0.29757   0.00000  Uiso   1.00
O69    O     0.10787   0.39202   0.32365   0.00000  Uiso   1.00
C70    C     0.19043   0.55647   0.28447   0.00000  Uiso   1.00
C71    C     0.11279   0.05910   0.92856   0.00000  Uiso   1.00
C72    C     0.13456   0.37022   0.81464   0.00000  Uiso   1.00
C73    C     0.22916   0.32975   0.68651   0.00000  Uiso   1.00
C74    C     0.07677   0.58130   1.07657   0.00000  Uiso   1.00
C75    C     0.08139   0.59134   0.91556   0.00000  Uiso   1.00
O76    O     0.08576   0.46209   0.61868   0.00000  Uiso   1.00
O77    O     0.19946   0.47597   0.72028   0.00000  Uiso   1.00
C78    C     0.19927   0.63528   0.69120   0.00000  Uiso   1.00
C79    C     0.01978   0.62086   0.25290   0.00000  Uiso   1.00
C80    C     0.27729   0.81723   0.16656   0.00000  Uiso   1.00
C81    C     0.30796   0.69742   0.06387   0.00000  Uiso   1.00
C82    C     0.42544   0.90047   0.06486   0.00000  Uiso   1.00
O83    O     0.21677   0.79540   0.02503   0.00000  Uiso   1.00
O84    O     0.17905   0.92918   0.02689   0.00000  Uiso   1.00
O85    O     0.02094   0.51135   0.51835   0.00000  Uiso   1.00
O86    O     0.12112   0.52164   0.41434   0.00000  Uiso   1.00
C87    C     0.07807   0.67168   0.45285   0.00000  Uiso   1.00
C88    C     0.03855   0.72863   0.65751   0.00000  Uiso   1.00
C89    C     0.06274   0.87622   0.58264   0.00000  Uiso   1.00
O90    O     0.08461   0.79129   0.93422   0.00000  Uiso   1.00
C91    C     0.07588   0.88303   0.82600   0.00000  Uiso   1.00
C92    C     0.91606   0.81223   0.91802   0.00000  Uiso   1.00
C93    C     0.63732   0.01460   0.62341   0.00000  Uiso   1.00
C94    C     0.31377   0.15759   0.68466   0.00000  Uiso   1.00
C95    C     0.38337   0.13477   0.81339   0.00000  Uiso   1.00
C96    C     0.24684   0.21046   0.82034   0.00000  Uiso   1.00
C97    C     0.28233   0.22147   1.19360   0.00000  Uiso   1.00
C98    C     0.35273   0.30187   0.01405   0.00000  Uiso   1.00
C99    C     0.54015   0.30703  -0.03748   0.00000  Uiso   1.00
C100   C     0.55110   0.42043   0.08787   0.00000  Uiso   1.00
O101   O     0.48624   0.45260  -0.03646   0.00000  Uiso   1.00
C102   C     0.03381   0.28051   0.43106   0.00000  Uiso   1.00
C103   C     0.29851   0.40573   0.52287   0.00000  Uiso   1.00
O104   O     0.28540   0.53353   0.61742   0.00000  Uiso   1.00
C105   C     0.37386   0.48748   0.32586   0.00000  Uiso   1.00
C106   C     0.46819   0.36309   0.37440   0.00000  Uiso   1.00
C107   C     0.57606   0.51826   0.30952   0.00000  Uiso   1.00
O108   O     0.44503   0.31374   0.79394   0.00000  Uiso   1.00
C109   C     0.56584   0.31907   0.69850   0.00000  Uiso   1.00
O110   O     0.33436   0.47334   0.79821   0.00000  Uiso   1.00
O111   O     0.48666   0.57817   0.89533   0.00000  Uiso   1.00
C112   C     0.30870   0.58432   0.90760   0.00000  Uiso   1.00
O113   O     0.43965   0.49839   0.64129   0.00000  Uiso   1.00
O114   O     0.51642   0.46406   0.74854   0.00000  Uiso   1.00
C115   C     0.40931   0.57037   0.08487   0.00000  Uiso   1.00
O116   O     0.57969   0.62060   0.02045   0.00000  Uiso   1.00
C117   C     0.56270   0.76901   0.08734   0.00000  Uiso   1.00
C118   C     0.60957   0.65464   0.16284   0.00000  Uiso   1.00
O119   O     0.42950   0.58423   0.54114   0.00000  Uiso   1.00
O120   O     0.51245   0.53805   0.44146   0.00000  Uiso   1.00
C121   C     0.48096   0.68800   0.43952   0.00000  Uiso   1.00
O122   O     0.21121   0.63996   0.52342   0.00000  Uiso   1.00
C123   C     0.32917   0.79298   0.45742   0.00000  Uiso   1.00
C124   C     0.26420   0.81287   0.59385   0.00000  Uiso   1.00
O125   O     0.42648   0.64879   0.80583   0.00000  Uiso   1.00
O126   O     0.55771   0.63227   0.73799   0.00000  Uiso   1.00
C127   C     0.34187   0.77935   0.89028   0.00000  Uiso   1.00
C128   C     0.44473   0.98236   0.89873   0.00000  Uiso   1.00
C129   C     0.28636   0.86891   0.78698   0.00000  Uiso   1.00
C130   C     0.45517   1.02685   0.65241   0.00000  Uiso   1.00
O131   O     0.25529   0.89373   0.92601   0.00000  Uiso   1.00
O132   O     0.40116   0.75017   0.58053   0.00000  Uiso   1.00
O133   O     0.46309   0.71957   0.69480   0.00000  Uiso   1.00
O134   O     0.49820   0.88499   0.68406   0.00000  Uiso   1.00
C135   C     0.58847   0.15832   0.11070   0.00000  Uiso   1.00
C136   C     0.58299   0.28129   0.23927   0.00000  Uiso   1.00
O137   O     0.91064  -0.01248   0.55043   0.00000  Uiso   1.00
O138   O     0.73195   0.04375   0.38626   0.00000  Uiso   1.00
C139   C     0.74409   0.23464   0.22145   0.00000  Uiso   1.00
C140   C     0.59888   0.04279   0.46730   0.00000  Uiso   1.00
O141   O     0.74985  -0.00415   0.50437   0.00000  Uiso   1.00
C142   C     0.80174  -0.03022   0.72456   0.00000  Uiso   1.00
O143   O     0.94178  -0.00706   0.83761   0.00000  Uiso   1.00
O144   O     0.60607   0.05150   0.75886   0.00000  Uiso   1.00
C145   C     0.77913   0.13952   0.84711   0.00000  Uiso   1.00
C146   C     0.62654   0.19856   0.85831   0.00000  Uiso   1.00
O147   O     0.71929   0.34663   0.14326   0.00000  Uiso   1.00
C148   C     0.84129   0.31928   0.05937   0.00000  Uiso   1.00
O149   O     0.90094   0.45232   0.17464   0.00000  Uiso   1.00
O150   O     0.92129   0.49621   0.98110   0.00000  Uiso   1.00
O151   O     0.79831   0.46639   0.06496   0.00000  Uiso   1.00
C152   C     0.70728   0.27891   0.53158   0.00000  Uiso   1.00
O153   O     0.80065   0.16958   0.49889   0.00000  Uiso   1.00
C154   C     0.80858   0.29434   0.41066   0.00000  Uiso   1.00
O155   O     0.91569   0.34662   0.54471   0.00000  Uiso   1.00
C156   C     0.57725   0.42732   0.54124   0.00000  Uiso   1.00
O157   O     0.63147   0.55089   0.65885   0.00000  Uiso   1.00
O158   O     0.72458   0.22059   0.74847   0.00000  Uiso   1.00
C159   C     0.91545   0.29246   0.71005   0.00000  Uiso   1.00
C160   C     0.86483   0.38461   0.83548   0.00000  Uiso   1.00
C161   C     1.06544   0.42687   0.97522   0.00000  Uiso   1.00
O162   O     0.62875   0.42678   0.82757   0.00000  Uiso   1.00
O163   O     0.75029   0.48696   0.93797   0.00000  Uiso   1.00
O164   O     0.64109   0.56348   0.91474   0.00000  Uiso   1.00
O165   O     0.92782   0.49358   0.62723   0.00000  Uiso   1.00
O166   O     0.75223   0.47934   0.62633   0.00000  Uiso   1.00
O167   O     0.79928   0.37810   0.69840   0.00000  Uiso   1.00
C168   C     0.82575   0.63304   0.16071   0.00000  Uiso   1.00
O169   O     0.86766   0.62027   0.02846   0.00000  Uiso   1.00
C170   C     0.82554   0.77083   0.07497   0.00000  Uiso   1.00
C171   C     1.00979   0.77295   0.12554   0.00000  Uiso   1.00
O172   O     0.73859   0.59651   0.56515   0.00000  Uiso   1.00
C173   C     0.81062   0.51772   0.46848   0.00000  Uiso   1.00
O174   O     0.90668   0.69810   0.53766   0.00000  Uiso   1.00
O175   O     0.61289   0.68388   0.53546   0.00000  Uiso   1.00
O176   O     0.74890   0.84977   0.54947   0.00000  Uiso   1.00
O177   O     0.58819   0.81014   0.61255   0.00000  Uiso   1.00
C178   C     0.94216   1.02178   0.35070   0.00000  Uiso   1.00
C179   C     0.81641   0.81696   0.30460   0.00000  Uiso   1.00
C180   C     0.75323   0.65937   0.43341   0.00000  Uiso   1.00
C181   C     0.99606   0.88280   0.40159   0.00000  Uiso   1.00
O182   O     0.81744   0.89664   0.43519   0.00000  Uiso   1.00
O183   O     0.77335   0.58610   0.83958   0.00000  Uiso   1.00
O184   O     0.86448   0.54445   0.74101   0.00000  Uiso   1.00
O185   O     0.95171   0.69684   0.82423   0.00000  Uiso   1.00
O186   O     0.59197   0.78976   0.80437   0.00000  Uiso   1.00
C187   C     0.67693   0.77711   0.92816   0.00000  Uiso   1.00
O188   O     0.77017   0.90972   0.85160   0.00000  Uiso   1.00
C189   C     0.64106   0.93046   0.92678   0.00000  Uiso   1.00
O190   O     0.89667   0.79078   0.65177   0.00000  Uiso   1.00
O191   O     0.71647   0.74799   0.65663   0.00000  Uiso   1.00
O192   O     0.80596   0.66490   0.72613   0.00000  Uiso   1.00
O193   O     0.84473   0.83377   0.76562   0.00000  Uiso   1.00
H194   H     0.31957   0.09517  -0.03093   0.00000  Uiso   1.00
H195   H     0.39572   0.06088   0.01544   0.00000  Uiso   1.00
H196   H     0.38741   0.15505   0.05442   0.00000  Uiso   1.00
H197   H     0.35612   1.00082   0.16086   0.00000  Uiso   1.00
H198   H     0.23351   0.97202   0.18109   0.00000  Uiso   1.00
H199   H     0.32946   1.08392   0.19069   0.00000  Uiso   1.00
H200   H    -0.20930   0.08656   0.24856   0.00000  Uiso   1.00
H201   H    -0.30238   0.00624   0.19285   0.00000  Uiso   1.00
H202   H    -0.22048  -0.02302   0.24268   0.00000  Uiso   1.00
H203   H    -0.39353   0.10749   0.33007   0.00000  Uiso   1.00
H204   H    -0.48943  -0.00477   0.30975   0.00000  Uiso   1.00
H205   H    -0.42808   0.04934   0.24426   0.00000  Uiso   1.00
H206   H     0.53086  -0.13260   0.34564   0.00000  Uiso   1.00
H207   H     0.63811  -0.15216   0.34558   0.00000  Uiso   1.00
H208   H     0.58150  -0.16038   0.26451   0.00000  Uiso   1.00
H209   H     0.10965   0.04654   0.21892   0.00000  Uiso   1.00
H210   H     0.00241   0.04736   0.17885   0.00000  Uiso   1.00
H211   H     0.08061   0.13651   0.24285   0.00000  Uiso   1.00
H212   H     0.00395   0.09013   0.70810   0.00000  Uiso   1.00
H213   H     0.11921   0.09810   0.67500   0.00000  Uiso   1.00
H214   H     0.00885  -0.00555   0.67572   0.00000  Uiso   1.00
H215   H     1.01296   0.22555   0.63879   0.00000  Uiso   1.00
H216   H     0.89448   0.15078   0.59137   0.00000  Uiso   1.00
H217   H     1.00271   0.20495   0.54574   0.00000  Uiso   1.00
H218   H    -0.02191   0.04774   1.03231   0.00000  Uiso   1.00
H219   H    -0.12750  -0.04597   0.97515   0.00000  Uiso   1.00
H220   H    -0.12186   0.06567   0.98738   0.00000  Uiso   1.00
H221   H     0.12831   0.21743   1.05091   0.00000  Uiso   1.00
H222   H     0.16317   0.28797   1.13049   0.00000  Uiso   1.00
H223   H     0.04065   0.19016   1.11140   0.00000  Uiso   1.00
H224   H     0.99093   0.20813   0.93981   0.00000  Uiso   1.00
H225   H     1.00074   0.18423   0.84772   0.00000  Uiso   1.00
H226   H     1.10601   0.22860   0.90606   0.00000  Uiso   1.00
H227   H     0.84974   0.56029   0.33119   0.00000  Uiso   1.00
H228   H     0.80681   0.44088   0.32372   0.00000  Uiso   1.00
H229   H     0.76109   0.49213   0.26204   0.00000  Uiso   1.00
H230   H     0.09283   0.09574   0.48311   0.00000  Uiso   1.00
H231   H     0.14052   0.06034   0.55492   0.00000  Uiso   1.00
H232   H     0.15836   0.17913   0.55842   0.00000  Uiso   1.00
H233   H    -0.08210   0.24625   0.27583   0.00000  Uiso   1.00
H234   H    -0.06479   0.15477   0.28812   0.00000  Uiso   1.00
H235   H    -0.00665   0.20912   0.22037   0.00000  Uiso   1.00
H236   H     0.15998   0.19740   0.34583   0.00000  Uiso   1.00
H237   H     0.23215   0.30359   0.38673   0.00000  Uiso   1.00
H238   H     0.22222   0.28513   0.29882   0.00000  Uiso   1.00
H239   H     0.17336   0.56542   0.23191   0.00000  Uiso   1.00
H240   H     0.24706   0.53900   0.28629   0.00000  Uiso   1.00
H241   H     0.22264   0.62220   0.31512   0.00000  Uiso   1.00
H242   H     0.15306   0.06713   0.88387   0.00000  Uiso   1.00
H243   H     0.10754   0.00445   0.95429   0.00000  Uiso   1.00
H244   H     0.15947   0.12208   0.96723   0.00000  Uiso   1.00
H245   H     0.08574   0.30130   0.79181   0.00000  Uiso   1.00
H246   H     0.09536   0.40842   0.81064   0.00000  Uiso   1.00
H247   H     0.15324   0.38010   0.86753   0.00000  Uiso   1.00
H248   H     0.18656   0.33537   0.64121   0.00000  Uiso   1.00
H249   H     0.19135   0.26177   0.69600   0.00000  Uiso   1.00
H250   H     0.30753   0.34626   0.68295   0.00000  Uiso   1.00
H251   H     0.10663   0.54160   1.10509   0.00000  Uiso   1.00
H252   H     0.00813   0.57153   1.09568   0.00000  Uiso   1.00
H253   H     0.12419   0.65417   1.08263   0.00000  Uiso   1.00
H254   H     0.02548   0.60959   0.89562   0.00000  Uiso   1.00
H255   H     0.09285   0.54552   0.87086   0.00000  Uiso   1.00
H256   H     0.15260   0.64450   0.93353   0.00000  Uiso   1.00
H257   H     0.18627   0.66498   0.64910   0.00000  Uiso   1.00
H258   H     0.27540   0.67946   0.71495   0.00000  Uiso   1.00
H259   H     0.14953   0.63131   0.72807   0.00000  Uiso   1.00
H260   H     0.05107   0.64022   0.30467   0.00000  Uiso   1.00
H261   H    -0.01079   0.66200   0.23475   0.00000  Uiso   1.00
H262   H     0.07344   0.61887   0.22267   0.00000  Uiso   1.00
H263   H     0.25641   0.75265   0.18176   0.00000  Uiso   1.00
H264   H     0.20470   0.81868   0.16619   0.00000  Uiso   1.00
H265   H     0.33954   0.87574   0.20596   0.00000  Uiso   1.00
H266   H     0.25100   0.65217   0.02650   0.00000  Uiso   1.00
H267   H     0.30613   0.67288   0.11374   0.00000  Uiso   1.00
H268   H     0.38132   0.71346   0.05205   0.00000  Uiso   1.00
H269   H     0.46408   0.91033   0.11572   0.00000  Uiso   1.00
H270   H     0.42540   0.96186   0.06184   0.00000  Uiso   1.00
H271   H     0.46578   0.87901   0.02547   0.00000  Uiso   1.00
H272   H     0.07642   0.71740   0.49775   0.00000  Uiso   1.00
H273   H     0.01097   0.64928   0.41879   0.00000  Uiso   1.00
H274   H     0.13258   0.71490   0.42102   0.00000  Uiso   1.00
H275   H     0.11395   0.78248   0.67625   0.00000  Uiso   1.00
H276   H     0.04516   0.67718   0.62132   0.00000  Uiso   1.00
H277   H    -0.00791   0.69399   0.69772   0.00000  Uiso   1.00
H278   H     0.02137   0.89058   0.54441   0.00000  Uiso   1.00
H279   H     0.12736   0.86972   0.56231   0.00000  Uiso   1.00
H280   H     0.09411   0.91988   0.63101   0.00000  Uiso   1.00
H281   H     0.02392   0.91504   0.82102   0.00000  Uiso   1.00
H282   H     0.09294   0.85490   0.77496   0.00000  Uiso   1.00
H283   H     0.14145   0.92894   0.85476   0.00000  Uiso   1.00
H284   H     0.86331   0.81138   0.88070   0.00000  Uiso   1.00
H285   H     0.94150   0.86565   0.96366   0.00000  Uiso   1.00
H286   H     0.86959   0.75207   0.94370   0.00000  Uiso   1.00
H287   H     0.64747   0.08302   0.61610   0.00000  Uiso   1.00
H288   H     0.60049  -0.03196   0.57643   0.00000  Uiso   1.00
H289   H     0.70714   0.01962   0.64637   0.00000  Uiso   1.00
H290   H     0.29981   0.19846   0.65540   0.00000  Uiso   1.00
H291   H     0.25146   0.08881   0.68127   0.00000  Uiso   1.00
H292   H     0.37517   0.14878   0.66029   0.00000  Uiso   1.00
H293   H     0.42970   0.12093   0.77811   0.00000  Uiso   1.00
H294   H     0.32033   0.07198   0.80739   0.00000  Uiso   1.00
H295   H     0.41594   0.15668   0.86746   0.00000  Uiso   1.00
H296   H     0.18395   0.14980   0.79562   0.00000  Uiso   1.00
H297   H     0.24115   0.26774   0.81473   0.00000  Uiso   1.00
H298   H     0.26385   0.21582   0.87517   0.00000  Uiso   1.00
H299   H     0.33799   0.20773   1.16851   0.00000  Uiso   1.00
H300   H     0.28579   0.19700   1.24353   0.00000  Uiso   1.00
H301   H     0.29486   0.29161   1.20426   0.00000  Uiso   1.00
H302   H     0.32498   0.22979  -0.00882   0.00000  Uiso   1.00
H303   H     0.30352   0.32537  -0.01393   0.00000  Uiso   1.00
H304   H     0.34620   0.30513   0.07050   0.00000  Uiso   1.00
H305   H     0.52168   0.29603  -0.09358   0.00000  Uiso   1.00
H306   H     0.50837   0.23733  -0.01889   0.00000  Uiso   1.00
H307   H     0.61978   0.33933  -0.01602   0.00000  Uiso   1.00
H308   H     0.56146   0.36925   0.10621   0.00000  Uiso   1.00
H309   H     0.50777   0.43343   0.12511   0.00000  Uiso   1.00
H310   H     0.62410   0.47942   0.08346   0.00000  Uiso   1.00
H311   H     0.05143   0.22499   0.43858   0.00000  Uiso   1.00
H312   H    -0.04918   0.24982   0.41913   0.00000  Uiso   1.00
H313   H     0.06666   0.34053   0.46919   0.00000  Uiso   1.00
H314   H     0.26555   0.34800   0.55191   0.00000  Uiso   1.00
H315   H     0.35023   0.39632   0.48978   0.00000  Uiso   1.00
H316   H     0.23945   0.40999   0.48977   0.00000  Uiso   1.00
H317   H     0.33982   0.44051   0.27722   0.00000  Uiso   1.00
H318   H     0.40950   0.55655   0.31570   0.00000  Uiso   1.00
H319   H     0.31470   0.46837   0.36228   0.00000  Uiso   1.00
H320   H     0.53998   0.36731   0.39201   0.00000  Uiso   1.00
H321   H     0.42727   0.31447   0.32904   0.00000  Uiso   1.00
H322   H     0.42348   0.33854   0.41861   0.00000  Uiso   1.00
H323   H     0.60909   0.59393   0.31150   0.00000  Uiso   1.00
H324   H     0.54231   0.47917   0.25776   0.00000  Uiso   1.00
H325   H     0.63531   0.50294   0.32374   0.00000  Uiso   1.00
H326   H     0.57329   0.26668   0.72429   0.00000  Uiso   1.00
H327   H     0.64017   0.36612   0.68490   0.00000  Uiso   1.00
H328   H     0.50455   0.29278   0.65955   0.00000  Uiso   1.00
H329   H     0.29402   0.53211   0.93674   0.00000  Uiso   1.00
H330   H     0.24882   0.58444   0.87926   0.00000  Uiso   1.00
H331   H     0.35732   0.65085   0.94092   0.00000  Uiso   1.00
H332   H     0.41190   0.50715   0.08097   0.00000  Uiso   1.00
H333   H     0.36184   0.56390   0.03801   0.00000  Uiso   1.00
H334   H     0.39216   0.59580   0.13120   0.00000  Uiso   1.00
H335   H     0.53481   0.78396   0.13348   0.00000  Uiso   1.00
H336   H     0.53207   0.77589   0.03668   0.00000  Uiso   1.00
H337   H     0.64201   0.80549   0.09325   0.00000  Uiso   1.00
H338   H     0.68533   0.69327   0.16292   0.00000  Uiso   1.00
H339   H     0.59030   0.58397   0.17594   0.00000  Uiso   1.00
H340   H     0.58480   0.68277   0.20935   0.00000  Uiso   1.00
H341   H     0.52857   0.69932   0.39924   0.00000  Uiso   1.00
H342   H     0.50590   0.75912   0.46804   0.00000  Uiso   1.00
H343   H     0.40617   0.65524   0.41723   0.00000  Uiso   1.00
H344   H     0.31788   0.74623   0.41293   0.00000  Uiso   1.00
H345   H     0.41191   0.84549   0.46530   0.00000  Uiso   1.00
H346   H     0.28333   0.82444   0.44438   0.00000  Uiso   1.00
H347   H     0.18589   0.77902   0.59009   0.00000  Uiso   1.00
H348   H     0.29448   0.86901   0.56852   0.00000  Uiso   1.00
H349   H     0.30892   0.83608   0.64399   0.00000  Uiso   1.00
H350   H     0.33637   0.77491   0.94296   0.00000  Uiso   1.00
H351   H     0.41658   0.79516   0.88171   0.00000  Uiso   1.00
H352   H     0.28452   0.71501   0.85757   0.00000  Uiso   1.00
H353   H     0.48777   0.98123   0.85600   0.00000  Uiso   1.00
H354   H     0.48191   0.97914   0.94415   0.00000  Uiso   1.00
H355   H     0.42688   1.03544   0.89481   0.00000  Uiso   1.00
H356   H     0.35201   0.89482   0.75946   0.00000  Uiso   1.00
H357   H     0.25621   0.91561   0.78828   0.00000  Uiso   1.00
H358   H     0.23101   0.80053   0.76956   0.00000  Uiso   1.00
H359   H     0.50011   1.10364   0.66248   0.00000  Uiso   1.00
H360   H     0.39377   1.00753   0.67989   0.00000  Uiso   1.00
H361   H     0.43160   1.00243   0.59849   0.00000  Uiso   1.00
H362   H     0.56495   0.17906   0.06153   0.00000  Uiso   1.00
H363   H     0.51976   0.11337   0.13186   0.00000  Uiso   1.00
H364   H     0.63815   0.12714   0.09647   0.00000  Uiso   1.00
H365   H     0.62307   0.34613   0.26824   0.00000  Uiso   1.00
H366   H     0.55963   0.22962   0.27369   0.00000  Uiso   1.00
H367   H     0.51816   0.27822   0.20653   0.00000  Uiso   1.00
H368   H     0.78385   0.21693   0.18257   0.00000  Uiso   1.00
H369   H     0.71580   0.18329   0.25552   0.00000  Uiso   1.00
H370   H     0.79381   0.29686   0.25366   0.00000  Uiso   1.00
H371   H     0.57559   0.06497   0.51408   0.00000  Uiso   1.00
H372   H     0.54292  -0.02571   0.45230   0.00000  Uiso   1.00
H373   H     0.58562   0.08603   0.43371   0.00000  Uiso   1.00
H374   H     0.72631  -0.04704   0.72841   0.00000  Uiso   1.00
H375   H     0.80993  -0.06339   0.67702   0.00000  Uiso   1.00
H376   H     0.85080   0.04397   0.73032   0.00000  Uiso   1.00
H377   H     0.84887   0.17302   0.82640   0.00000  Uiso   1.00
H378   H     0.75882   0.06907   0.84511   0.00000  Uiso   1.00
H379   H     0.78617   0.17385   0.90127   0.00000  Uiso   1.00
H380   H     0.57614   0.15054   0.88477   0.00000  Uiso   1.00
H381   H     0.58738   0.23517   0.83355   0.00000  Uiso   1.00
H382   H     0.68782   0.24868   0.89466   0.00000  Uiso   1.00
H383   H     0.88443   0.29939   0.09583   0.00000  Uiso   1.00
H384   H     0.88612   0.35430   0.02052   0.00000  Uiso   1.00
H385   H     0.77093   0.26053   0.03369   0.00000  Uiso   1.00
H386   H     0.70008   0.26332   0.58191   0.00000  Uiso   1.00
H387   H     0.64110   0.23217   0.49688   0.00000  Uiso   1.00
H388   H     0.71624   0.34908   0.53161   0.00000  Uiso   1.00
H389   H     0.88319   0.34771   0.40386   0.00000  Uiso   1.00
H390   H     0.76311   0.32757   0.40222   0.00000  Uiso   1.00
H391   H     0.78800   0.23184   0.37525   0.00000  Uiso   1.00
H392   H     0.53285   0.37593   0.57009   0.00000  Uiso   1.00
H393   H     0.61439   0.40073   0.50677   0.00000  Uiso   1.00
H394   H     0.52510   0.44666   0.51845   0.00000  Uiso   1.00
H395   H     0.88942   0.27257   0.65441   0.00000  Uiso   1.00
H396   H     0.91766   0.23475   0.73093   0.00000  Uiso   1.00
H397   H     0.98523   0.35524   0.71995   0.00000  Uiso   1.00
H398   H     0.81180   0.40297   0.85290   0.00000  Uiso   1.00
H399   H     0.93822   0.44684   0.83233   0.00000  Uiso   1.00
H400   H     0.86631   0.34213   0.87266   0.00000  Uiso   1.00
H401   H     1.04948   0.40046   1.02449   0.00000  Uiso   1.00
H402   H     1.14731   0.45901   0.97048   0.00000  Uiso   1.00
H403   H     1.02524   0.37325   0.93199   0.00000  Uiso   1.00
H404   H     0.74799   0.59506   0.14739   0.00000  Uiso   1.00
H405   H     0.84108   0.68342   0.20780   0.00000  Uiso   1.00
H406   H     0.86170   0.59309   0.17107   0.00000  Uiso   1.00
H407   H     0.75387   0.73109   0.04210   0.00000  Uiso   1.00
H408   H     0.87014   0.82707   0.04885   0.00000  Uiso   1.00
H409   H     0.81629   0.80371   0.12745   0.00000  Uiso   1.00
H410   H     1.01830   0.81920   0.17389   0.00000  Uiso   1.00
H411   H     1.04508   0.81903   0.09098   0.00000  Uiso   1.00
H412   H     1.04408   0.73111   0.13826   0.00000  Uiso   1.00
H413   H     0.88401   0.54188   0.44782   0.00000  Uiso   1.00
H414   H     0.75519   0.48573   0.42134   0.00000  Uiso   1.00
H415   H     0.81080   0.47400   0.50555   0.00000  Uiso   1.00
H416   H     0.91259   1.06803   0.37847   0.00000  Uiso   1.00
H417   H     0.91762   1.01147   0.29790   0.00000  Uiso   1.00
H418   H     1.02057   1.06141   0.35700   0.00000  Uiso   1.00
H419   H     0.85762   0.78253   0.28786   0.00000  Uiso   1.00
H420   H     0.80641   0.84727   0.25878   0.00000  Uiso   1.00
H421   H     0.74422   0.76740   0.31611   0.00000  Uiso   1.00
H422   H     0.78412   0.73430   0.44661   0.00000  Uiso   1.00
H423   H     0.67551   0.62737   0.43142   0.00000  Uiso   1.00
H424   H     0.77403   0.64635   0.38165   0.00000  Uiso   1.00
H425   H     1.04172   0.89525   0.35550   0.00000  Uiso   1.00
H426   H     0.95885   0.81168   0.41520   0.00000  Uiso   1.00
H427   H     1.04497   0.93545   0.44850   0.00000  Uiso   1.00
H428   H     0.70964   0.73370   0.89841   0.00000  Uiso   1.00
H429   H     0.60633   0.73445   0.94635   0.00000  Uiso   1.00
H430   H     0.72716   0.82054   0.97574   0.00000  Uiso   1.00
H431   H     0.57475   0.89845   0.94829   0.00000  Uiso   1.00
H432   H     0.63283   0.97277   0.88985   0.00000  Uiso   1.00
H433   H     0.70047   0.97284   0.96906   0.00000  Uiso   1.00
loop_
_geom_bond_atom_site_label_1
_geom_bond_atom_site_label_2
_geom_bond_distance
_geom_bond_site_symmetry_2
_ccdc_geom_bond_type
Si1    C52     1.830   .     S
Si1    O57     1.593   .     S
Si1    C53     1.897   1_545 S
Si1    O84     1.591   1_545 S
Si2    C54     1.840   .     S
Si2    C55     1.818   .     S
Si2    C56     1.891   1_455 S
Si2    O138    1.637   1_455 S
Si3    O57     1.601   .     S
Si3    C58     1.854   .     S
Si3    C62     1.854   1_554 S
Si3    C97     1.869   1_554 S
Si4    C59     1.833   .     S
Si4    C65     1.830   .     S
Si4    C60     1.864   1_455 S
Si4    O137    1.607   1_455 S
Si5    C61     1.925   .     S
Si5    C71     1.831   .     S
Si5    C63     1.923   1_455 S
Si5    O143    1.602   1_455 S
Si6    O68     1.590   .     S
Si6    C79     1.807   .     S
Si6    C64     1.963   1_455 S
Si6    O149    1.607   1_455 S
Si7    C66     1.913   .     S
Si7    C67     1.879   .     S
Si7    O69     1.589   .     S
Si7    C102    1.939   .     S
Si8    O76     1.638   .     S
Si8    O85     1.614   .     S
Si8    O155    1.647   1_455 S
Si8    O165    1.639   1_455 S
Si9    O68     1.639   .     S
Si9    O69     1.572   .     S
Si9    C70     1.890   .     S
Si9    O86     1.632   .     S
Si10   C72     1.878   .     S
Si10   C73     1.886   .     S
Si10   O77     1.569   .     S
Si10   O110    1.534   .     S
Si11   C74     1.846   .     S
Si11   C75     1.865   .     S
Si11   O150    1.582   1_455 S
Si11   C161    1.934   1_455 S
Si12   O76     1.588   .     S
Si12   O77     1.601   .     S
Si12   C78     1.896   .     S
Si12   O104    1.614   .     S
Si13   C80     1.878   .     S
Si13   C81     1.846   .     S
Si13   C82     1.873   .     S
Si13   O83     1.588   .     S
Si14   O83     1.596   .     S
Si14   O84     1.565   .     S
Si14   O90     1.538   1_554 S
Si14   O131    1.581   1_554 S
Si15   O85     1.634   .     S
Si15   O86     1.598   .     S
Si15   C87     1.892   .     S
Si15   O122    1.640   .     S
Si16   C88     1.881   .     S
Si16   C89     1.861   .     S
Si16   O174    1.615   1_455 S
Si16   O190    1.598   1_455 S
Si17   O90     1.611   .     S
Si17   C91     1.840   .     S
Si17   C92     1.867   1_455 S
Si17   O185    1.620   1_455 S
Si18   C93     1.825   .     S
Si18   O144    1.659   .     S
Si18   C130    1.898   1_545 S
Si18   O134    1.590   1_545 S
Si19   C94     1.918   .     S
Si19   C95     1.860   .     S
Si19   C96     1.837   .     S
Si19   O108    1.606   .     S
Si20   C98     1.852   .     S
Si20   C99     1.873   .     S
Si20   C100    1.828   .     S
Si20   O101    1.607   .     S
Si21   O101    1.583   .     S
Si21   O116    1.631   .     S
Si21   O111    1.620   1_554 S
Si21   O164    1.557   1_554 S
Si22   C103    1.843   .     S
Si22   O104    1.631   .     S
Si22   O113    1.635   .     S
Si22   O119    1.585   .     S
Si23   C105    1.865   .     S
Si23   C106    1.839   .     S
Si23   C107    1.898   .     S
Si23   O120    1.629   .     S
Si24   O108    1.584   .     S
Si24   C109    1.826   .     S
Si24   O114    1.598   .     S
Si24   O162    1.633   .     S
Si25   O110    1.640   .     S
Si25   O111    1.627   .     S
Si25   C112    1.859   .     S
Si25   O125    1.571   .     S
Si26   O113    1.583   .     S
Si26   O114    1.608   .     S
Si26   O126    1.638   .     S
Si26   O157    1.656   .     S
Si27   C115    1.899   .     S
Si27   O116    1.594   .     S
Si27   C117    1.854   .     S
Si27   C118    1.764   .     S
Si28   O119    1.583   .     S
Si28   O120    1.610   .     S
Si28   C121    1.833   .     S
Si28   O175    1.581   .     S
Si29   O122    1.640   .     S
Si29   C123    1.910   .     S
Si29   C124    1.854   .     S
Si29   O132    1.617   .     S
Si30   O125    1.576   .     S
Si30   O126    1.636   .     S
Si30   O133    1.624   .     S
Si30   O186    1.587   .     S
Si31   C127    1.875   .     S
Si31   C128    1.842   .     S
Si31   C129    1.817   .     S
Si31   O131    1.582   .     S
Si32   O132    1.581   .     S
Si32   O133    1.590   .     S
Si32   O134    1.659   .     S
Si32   O177    1.626   .     S
Si33   C135    1.832   .     S
Si33   C136    1.869   .     S
Si33   C139    1.790   .     S
Si33   O147    1.616   .     S
Si34   O137    1.588   .     S
Si34   O141    1.619   .     S
Si34   O176    1.615   1_545 S
Si34   O182    1.605   1_545 S
Si35   O138    1.548   .     S
Si35   C140    1.903   .     S
Si35   O141    1.617   .     S
Si35   O153    1.635   .     S
Si36   C142    1.877   .     S
Si36   O143    1.539   .     S
Si36   O188    1.593   1_545 S
Si36   O193    1.609   1_545 S
Si37   O144    1.580   .     S
Si37   C145    1.848   .     S
Si37   C146    1.813   .     S
Si37   O158    1.607   .     S
Si38   O147    1.568   .     S
Si38   C148    1.842   .     S
Si38   O149    1.584   .     S
Si38   O151    1.634   .     S
Si39   O151    1.547   .     S
Si39   O169    1.592   .     S
Si39   O150    1.607   1_554 S
Si39   O163    1.646   1_554 S
Si40   C152    1.883   .     S
Si40   O153    1.602   .     S
Si40   C154    1.874   .     S
Si40   O155    1.627   .     S
Si41   C156    1.814   .     S
Si41   O157    1.600   .     S
Si41   O166    1.589   .     S
Si41   O172    1.575   .     S
Si42   O158    1.610   .     S
Si42   C159    1.913   .     S
Si42   C160    1.861   .     S
Si42   O167    1.624   .     S
Si43   O162    1.574   .     S
Si43   O163    1.607   .     S
Si43   O164    1.568   .     S
Si43   O183    1.615   .     S
Si44   O165    1.618   .     S
Si44   O166    1.628   .     S
Si44   O167    1.603   .     S
Si44   O184    1.604   .     S
Si45   C168    1.832   .     S
Si45   O169    1.610   .     S
Si45   C170    1.894   .     S
Si45   C171    1.842   .     S
Si46   O172    1.561   .     S
Si46   C173    1.870   .     S
Si46   O174    1.592   .     S
Si46   C180    1.883   .     S
Si47   O175    1.617   .     S
Si47   O176    1.686   .     S
Si47   O177    1.641   .     S
Si47   O191    1.669   .     S
Si48   C178    1.901   .     S
Si48   C179    1.877   .     S
Si48   C181    1.932   .     S
Si48   O182    1.576   .     S
Si49   O183    1.652   .     S
Si49   O184    1.581   .     S
Si49   O185    1.637   .     S
Si49   O192    1.631   .     S
Si50   O186    1.593   .     S
Si50   C187    1.781   .     S
Si50   O188    1.593   .     S
Si50   C189    1.865   .     S
Si51   O190    1.576   .     S
Si51   O191    1.632   .     S
Si51   O192    1.637   .     S
Si51   O193    1.626   .     S
C52    H194    1.137   .     S
C52    H195    1.127   .     S
C52    H196    1.113   .     S
C53    H197    1.116   .     S
C53    H198    1.075   .     S
C53    H199    1.084   .     S
C53    Si1     1.897   1_565 S
C54    H200    1.117   .     S
C54    H201    1.049   .     S
C54    H202    1.090   .     S
C55    H203    1.115   .     S
C55    H204    1.057   .     S
C55    H205    1.075   .     S
C56    H206    1.098   .     S
C56    H207    1.104   .     S
C56    H208    1.136   .     S
C56    Si2     1.891   1_655 S
C58    H209    1.058   .     S
C58    H210    1.089   .     S
C58    H211    1.107   .     S
C59    H212    1.124   .     S
C59    H213    1.074   .     S
C59    H214    1.067   .     S
C60    H215    1.123   .     S
C60    H216    1.120   .     S
C60    H217    1.099   .     S
C60    Si4     1.864   1_655 S
C61    H218    1.175   .     S
C61    H219    1.150   .     S
C61    H220    1.087   .     S
C62    H221    1.077   .     S
C62    H222    1.130   .     S
C62    H223    1.117   .     S
C62    Si3     1.854   1_556 S
C63    H224    1.124   .     S
C63    H225    1.102   .     S
C63    H226    1.140   .     S
C63    Si5     1.923   1_655 S
C64    H227    1.075   .     S
C64    H228    1.112   .     S
C64    H229    1.119   .     S
C64    Si6     1.963   1_655 S
C65    H230    1.150   .     S
C65    H231    1.089   .     S
C65    H232    1.141   .     S
C66    H233    1.079   .     S
C66    H234    1.092   .     S
C66    H235    1.083   .     S
C67    H236    1.063   .     S
C67    H237    1.093   .     S
C67    H238    1.133   .     S
C70    H239    1.099   .     S
C70    H240    1.045   .     S
C70    H241    1.079   .     S
C71    H242    1.096   .     S
C71    H243    1.081   .     S
C71    H244    1.139   .     S
C72    H245    1.089   .     S
C72    H246    1.073   .     S
C72    H247    1.038   .     S
C73    H248    1.118   .     S
C73    H249    1.080   .     S
C73    H250    1.129   .     S
C74    H251    1.149   .     S
C74    H252    1.099   .     S
C74    H253    1.107   .     S
C75    H254    1.110   .     S
C75    H255    1.179   .     S
C75    H256    1.072   .     S
C78    H257    1.073   .     S
C78    H258    1.113   .     S
C78    H259    1.077   .     S
C79    H260    1.051   .     S
C79    H261    1.083   .     S
C79    H262    1.062   .     S
C80    H263    1.079   .     S
C80    H264    1.138   .     S
C80    H265    1.181   .     S
C81    H266    1.048   .     S
C81    H267    1.109   .     S
C81    H268    1.093   .     S
C82    H269    1.092   .     S
C82    H270    1.049   .     S
C82    H271    1.149   .     S
O84    Si1     1.591   1_565 S
C87    H272    1.114   .     S
C87    H273    1.089   .     S
C87    H274    1.124   .     S
C88    H275    1.121   .     S
C88    H276    1.104   .     S
C88    H277    1.136   .     S
C89    H278    1.079   .     S
C89    H279    1.146   .     S
C89    H280    1.073   .     S
O90    Si14    1.538   1_556 S
C91    H281    1.161   .     S
C91    H282    1.157   .     S
C91    H283    1.042   .     S
C92    H284    1.062   .     S
C92    H285    1.109   .     S
C92    H286    1.151   .     S
C92    Si17    1.867   1_655 S
C93    H287    1.126   .     S
C93    H288    1.081   .     S
C93    H289    1.113   .     S
C94    H290    1.036   .     S
C94    H291    1.126   .     S
C94    H292    1.151   .     S
C95    H293    1.107   .     S
C95    H294    1.064   .     S
C95    H295    1.098   .     S
C96    H296    1.085   .     S
C96    H297    1.030   .     S
C96    H298    1.081   .     S
C97    H299    1.116   .     S
C97    H300    1.119   .     S
C97    H301    1.106   .     S
C97    Si3     1.869   1_556 S
C98    H302    1.121   .     S
C98    H303    1.149   .     S
C98    H304    1.120   .     S
C99    H305    1.098   .     S
C99    H306    1.173   .     S
C99    H307    1.135   .     S
C100   H308    1.049   .     S
C100   H309    1.091   .     S
C100   H310    1.146   .     S
C102   H311    1.113   .     S
C102   H312    1.151   .     S
C102   H313    1.082   .     S
C103   H314    1.125   .     S
C103   H315    1.116   .     S
C103   H316    1.128   .     S
C105   H317    1.103   .     S
C105   H318    1.098   .     S
C105   H319    1.153   .     S
C106   H320    1.116   .     S
C106   H321    1.083   .     S
C106   H322    1.146   .     S
C107   H323    1.143   .     S
C107   H324    1.105   .     S
C107   H325    1.092   .     S
C109   H326    1.118   .     S
C109   H327    1.142   .     S
C109   H328    1.072   .     S
O111   Si21    1.620   1_556 S
C112   H329    1.058   .     S
C112   H330    1.057   .     S
C112   H331    1.131   .     S
C115   H332    1.083   .     S
C115   H333    1.110   .     S
C115   H334    1.062   .     S
C117   H335    1.080   .     S
C117   H336    1.122   .     S
C117   H337    1.095   .     S
C118   H338    1.061   .     S
C118   H339    1.163   .     S
C118   H340    1.147   .     S
C121   H341    1.091   .     S
C121   H342    1.147   .     S
C121   H343    1.076   .     S
C123   H344    1.058   .     S
C123   H345    1.179   .     S
C123   H346    1.098   .     S
C124   H347    1.082   .     S
C124   H348    1.056   .     S
C124   H349    1.094   .     S
C127   H350    1.055   .     S
C127   H351    1.096   .     S
C127   H352    1.139   .     S
C128   H353    1.108   .     S
C128   H354    1.057   .     S
C128   H355    1.062   .     S
C129   H356    1.117   .     S
C129   H357    1.083   .     S
C129   H358    1.087   .     S
C130   H359    1.154   .     S
C130   H360    1.064   .     S
C130   H361    1.072   .     S
C130   Si18    1.898   1_565 S
O131   Si14    1.581   1_556 S
O134   Si18    1.590   1_565 S
C135   H362    1.162   .     S
C135   H363    1.137   .     S
C135   H364    1.143   .     S
C136   H365    1.058   .     S
C136   H366    1.115   .     S
C136   H367    1.141   .     S
O137   Si4     1.607   1_655 S
O138   Si2     1.637   1_655 S
C139   H368    1.106   .     S
C139   H369    1.110   .     S
C139   H370    1.081   .     S
C140   H371    1.095   .     S
C140   H372    1.086   .     S
C140   H373    1.118   .     S
C142   H374    1.084   .     S
C142   H375    1.078   .     S
C142   H376    1.129   .     S
O143   Si5     1.602   1_655 S
C145   H377    1.104   .     S
C145   H378    1.085   .     S
C145   H379    1.128   .     S
C146   H380    1.061   .     S
C146   H381    1.168   .     S
C146   H382    1.093   .     S
C148   H383    1.132   .     S
C148   H384    1.106   .     S
C148   H385    1.134   .     S
O149   Si6     1.607   1_655 S
O150   Si11    1.582   1_655 S
O150   Si39    1.607   1_556 S
C152   H386    1.056   .     S
C152   H387    1.102   .     S
C152   H388    1.133   .     S
C154   H389    1.136   .     S
C154   H390    1.098   .     S
C154   H391    1.099   .     S
O155   Si8     1.647   1_655 S
C156   H392    1.088   .     S
C156   H393    1.096   .     S
C156   H394    1.092   .     S
C159   H395    1.104   .     S
C159   H396    1.118   .     S
C159   H397    1.114   .     S
C160   H398    1.062   .     S
C160   H399    1.169   .     S
C160   H400    1.092   .     S
C161   H401    1.112   .     S
C161   H402    1.153   .     S
C161   H403    1.091   .     S
C161   Si11    1.934   1_655 S
O163   Si39    1.646   1_556 S
O164   Si21    1.557   1_556 S
O165   Si8     1.639   1_655 S
C168   H404    1.082   .     S
C168   H405    1.119   .     S
C168   H406    1.080   .     S
C170   H407    1.121   .     S
C170   H408    1.105   .     S
C170   H409    1.163   .     S
C171   H410    1.120   .     S
C171   H411    1.078   .     S
C171   H412    1.101   .     S
C173   H413    1.144   .     S
C173   H414    1.126   .     S
C173   H415    1.101   .     S
O174   Si16    1.615   1_655 S
O176   Si34    1.615   1_565 S
C178   H416    1.171   .     S
C178   H417    1.054   .     S
C178   H418    1.087   .     S
C179   H419    1.081   .     S
C179   H420    1.126   .     S
C179   H421    1.117   .     S
C180   H422    1.128   .     S
C180   H423    1.076   .     S
C180   H424    1.114   .     S
C181   H425    1.166   .     S
C181   H426    1.154   .     S
C181   H427    1.160   .     S
O182   Si34    1.605   1_565 S
O185   Si17    1.620   1_655 S
C187   H428    1.186   .     S
C187   H429    1.119   .     S
C187   H430    1.126   .     S
O188   Si36    1.593   1_565 S
C189   H431    1.068   .     S
C189   H432    1.120   .     S
C189   H433    1.113   .     S
O190   Si16    1.598   1_655 S
O193   Si36    1.609   1_565 S
