data_333-13-11-12-15-30-11
_audit_creation_date              2025-03-07
_audit_creation_method            'Materials Studio'
_symmetry_space_group_name_H-M    'P1'
_symmetry_Int_Tables_number       1
_symmetry_cell_setting            triclinic
loop_
_symmetry_equiv_pos_as_xyz
  x,y,z
_cell_length_a                    15.9658
_cell_length_b                    16.9132
_cell_length_c                    20.0572
_cell_angle_alpha                 77.3348
_cell_angle_beta                  93.8177
_cell_angle_gamma                 123.7628
loop_
_atom_site_label
_atom_site_type_symbol
_atom_site_fract_x
_atom_site_fract_y
_atom_site_fract_z
_atom_site_U_iso_or_equiv
_atom_site_adp_type
_atom_site_occupancy
Si1    Si    0.02207   0.24971   0.24944   0.00000  Uiso   1.00
Si2    Si    0.13940   0.03571   0.45453   0.00000  Uiso   1.00
Si3    Si   -0.02487   0.17011   0.50968   0.00000  Uiso   1.00
Si4    Si    0.16634   0.21407   0.35508   0.00000  Uiso   1.00
Si5    Si    0.16791  -0.14118   0.90169   0.00000  Uiso   1.00
Si6    Si    0.13409   0.16257   0.59587   0.00000  Uiso   1.00
Si7    Si    0.20701   0.41392   0.15629   0.00000  Uiso   1.00
Si8    Si    0.08520   0.59564   0.20767   0.00000  Uiso   1.00
Si9    Si    0.15776   0.35446   0.41618   0.00000  Uiso   1.00
Si10   Si    0.01332   0.44326   0.52439   0.00000  Uiso   1.00
Si11   Si    0.19356   0.53534   0.31485   0.00000  Uiso   1.00
Si12   Si    0.18963   0.25380   0.71792   0.00000  Uiso   1.00
Si13   Si   -0.11362   0.47554   0.91463   0.00000  Uiso   1.00
Si14   Si    0.18016   0.62030   0.42677   0.00000  Uiso   1.00
Si15   Si   -0.01142   0.83611   0.54479   0.00000  Uiso   1.00
Si16   Si    0.49656   0.01413   0.28417   0.00000  Uiso   1.00
Si17   Si    0.34517   0.24256   0.26643   0.00000  Uiso   1.00
Si18   Si    0.30537   0.18641   0.52065   0.00000  Uiso   1.00
Si19   Si    0.50943   0.23965   0.35292   0.00000  Uiso   1.00
Si20   Si    0.36757   0.00005   0.96535   0.00000  Uiso   1.00
Si21   Si    0.40285   0.11358   0.63785   0.00000  Uiso   1.00
Si22   Si    0.37206   0.57591   0.22949   0.00000  Uiso   1.00
Si23   Si    0.39249   0.38696  -0.06947   0.00000  Uiso   1.00
Si24   Si    0.49047   0.36508   0.42568   0.00000  Uiso   1.00
Si25   Si    0.32232   0.49619   0.50196   0.00000  Uiso   1.00
Si26   Si    0.52415   0.55829   0.33445   0.00000  Uiso   1.00
Si27   Si    0.55804   0.75722   0.12892   0.00000  Uiso   1.00
Si28   Si    0.54923   0.71468  -0.01386   0.00000  Uiso   1.00
Si29   Si    0.49678   0.68258   0.41244   0.00000  Uiso   1.00
Si30   Si    0.30265   0.75319   0.52621   0.00000  Uiso   1.00
Si31   Si    0.44806   0.64304   0.72586   0.00000  Uiso   1.00
Si32   Si    0.38769   0.74542   0.92087   0.00000  Uiso   1.00
Si33   Si    0.49072   0.80342   0.60165   0.00000  Uiso   1.00
Si34   Si    0.91945   0.13151   0.13415   0.00000  Uiso   1.00
Si35   Si    0.65448   0.23456   0.26078   0.00000  Uiso   1.00
Si36   Si    0.81674   0.03348   0.41474   0.00000  Uiso   1.00
Si37   Si    0.83939   0.21950   0.32676   0.00000  Uiso   1.00
Si38   Si    0.84628   0.13417   0.63492   0.00000  Uiso   1.00
Si39   Si    0.67291   0.32197   0.11040   0.00000  Uiso   1.00
Si40   Si    0.73575   0.61334   0.27898   0.00000  Uiso   1.00
Si41   Si    0.74598   0.50312  -0.00949   0.00000  Uiso   1.00
Si42   Si    0.84730   0.32511   0.43515   0.00000  Uiso   1.00
Si43   Si    0.62153   0.46344   0.54381   0.00000  Uiso   1.00
Si44   Si    0.79454   0.23236   0.71574   0.00000  Uiso   1.00
Si45   Si    0.60938   0.49156   0.86441   0.00000  Uiso   1.00
Si46   Si    0.70052   0.98745   0.09594   0.00000  Uiso   1.00
Si47   Si    1.01681   1.06667   0.04921   0.00000  Uiso   1.00
Si48   Si    0.64623   0.83474   0.50413   0.00000  Uiso   1.00
Si49   Si    0.85955   0.93678   0.32930   0.00000  Uiso   1.00
Si50   Si    0.75520   0.65798   0.74279   0.00000  Uiso   1.00
Si51   Si    0.78979   0.80187   0.60750   0.00000  Uiso   1.00
C52    C     0.17985   0.99135   0.39233   0.00000  Uiso   1.00
O53    O     0.08142   0.21026   0.30341   0.00000  Uiso   1.00
O54    O     0.12100   0.11596   0.41009   0.00000  Uiso   1.00
C55    C     0.08851   0.73648   0.96418   0.00000  Uiso   1.00
C56    C     0.15983   0.83796   0.81213   0.00000  Uiso   1.00
O57    O     0.04598   0.13965   0.54445   0.00000  Uiso   1.00
C58    C     0.09935  -0.08024   0.90624   0.00000  Uiso   1.00
C59    C     0.11715   0.05051   0.64918   0.00000  Uiso   1.00
O60    O     0.10511   0.35167   0.20306   0.00000  Uiso   1.00
C61    C     0.21732   0.32322   0.12285   0.00000  Uiso   1.00
C62    C     0.20039   0.49163   0.08007   0.00000  Uiso   1.00
C63    C     0.20787   0.70315   0.16060   0.00000  Uiso   1.00
C64    C     1.02119   0.64971   0.23186   0.00000  Uiso   1.00
O65    O     0.04110   0.26856   0.45133   0.00000  Uiso   1.00
O66    O     0.19894   0.29831   0.39317   0.00000  Uiso   1.00
C67    C     0.04651   0.39002   0.60475   0.00000  Uiso   1.00
C68    C     0.94763   0.49345   0.55306   0.00000  Uiso   1.00
O69    O     0.10764   0.53533   0.26903   0.00000  Uiso   1.00
O70    O     0.15395   0.42845   0.35306   0.00000  Uiso   1.00
C71    C     0.13588   0.14229   0.78768   0.00000  Uiso   1.00
O72    O     0.14210   0.22804   0.64702   0.00000  Uiso   1.00
C73    C     0.16576   0.33709   0.74836   0.00000  Uiso   1.00
C74    C     0.32374   0.30416   0.69851   0.00000  Uiso   1.00
C75    C    -0.01361   0.46203   0.95241   0.00000  Uiso   1.00
C76    C    -0.04943   0.57549   0.83512   0.00000  Uiso   1.00
O77    O     0.11331   0.51955   0.47948   0.00000  Uiso   1.00
O78    O     0.22513   0.60436   0.36730   0.00000  Uiso   1.00
C79    C     0.11158   0.68081   0.39837   0.00000  Uiso   1.00
C80    C     0.06086   0.82305   0.61757   0.00000  Uiso   1.00
O81    O     0.04156   0.94934   0.50470   0.00000  Uiso   1.00
C82    C     0.98559   0.76055   0.49262   0.00000  Uiso   1.00
C83    C     0.36853  -0.01247   0.29439   0.00000  Uiso   1.00
C84    C     0.55745   0.99725   0.36208   0.00000  Uiso   1.00
C85    C     0.26665   0.15250   0.21391   0.00000  Uiso   1.00
C86    C     0.43659   0.37297   0.21630   0.00000  Uiso   1.00
O87    O     0.26536   0.23686   0.31570   0.00000  Uiso   1.00
O88    O     0.23654   0.08769   0.49635   0.00000  Uiso   1.00
O89    O     0.23349   0.21258   0.54867   0.00000  Uiso   1.00
O90    O     0.42258   0.21553   0.30208   0.00000  Uiso   1.00
C91    C     0.46103   0.13876   0.43207   0.00000  Uiso   1.00
O92    O     0.28301  -0.07708   0.92360   0.00000  Uiso   1.00
C93    C     0.33491  -0.05241   1.05821   0.00000  Uiso   1.00
C94    C     0.49912   0.04428   0.94235   0.00000  Uiso   1.00
C95    C     0.35427   0.10651   0.93784   0.00000  Uiso   1.00
O96    O     0.36796   0.17644   0.58627   0.00000  Uiso   1.00
C97    C     0.41060   0.12570   0.72979   0.00000  Uiso   1.00
C98    C     0.52806   0.14749   0.60821   0.00000  Uiso   1.00
C99    C     0.30623  -0.01626   0.63406   0.00000  Uiso   1.00
O100   O     0.30328   0.48372   0.19377   0.00000  Uiso   1.00
O101   O     0.29239   0.58095   0.27033   0.00000  Uiso   1.00
C102   C     0.41235   0.33333   0.01418   0.00000  Uiso   1.00
C103   C     0.32252   0.28762   0.88515   0.00000  Uiso   1.00
O104   O     0.38204   0.27512   0.45846   0.00000  Uiso   1.00
O105   O     0.53578   0.33132   0.37888   0.00000  Uiso   1.00
O106   O     0.22700   0.41114   0.47157   0.00000  Uiso   1.00
C107   C     0.39963   0.45396   0.53434   0.00000  Uiso   1.00
C108   C     0.29244   0.51843   0.58092   0.00000  Uiso   1.00
O109   O     0.43719   0.55059   0.28177   0.00000  Uiso   1.00
O110   O     0.48082   0.44526   0.37872   0.00000  Uiso   1.00
O111   O     0.44680   0.67763   0.17309   0.00000  Uiso   1.00
C112   C     0.32159   0.44252  -0.06298   0.00000  Uiso   1.00
C113   C     0.64120   0.71418   0.15226   0.00000  Uiso   1.00
O114   O     0.54281   0.75304   0.05036   0.00000  Uiso   1.00
C115   C     0.67867   0.79495  -0.05946   0.00000  Uiso   1.00
C116   C     0.48785   0.93759   0.22700   0.00000  Uiso   1.00
C117   C     0.52433   0.59396   1.02186   0.00000  Uiso   1.00
O118   O     0.38651   0.60087   0.45106   0.00000  Uiso   1.00
O119   O     0.54141   0.62589   0.38485   0.00000  Uiso   1.00
C120   C     0.48556   0.76624   0.34284   0.00000  Uiso   1.00
O121   O     0.27095   0.69028   0.46909   0.00000  Uiso   1.00
C122   C     0.34730   0.88067   0.48235   0.00000  Uiso   1.00
C123   C     0.19972   0.70941   0.59023   0.00000  Uiso   1.00
C124   C     0.31454   0.60692   0.73591   0.00000  Uiso   1.00
C125   C     0.46438   0.54857   0.71886   0.00000  Uiso   1.00
C126   C     0.52195   0.70736   0.79266   0.00000  Uiso   1.00
C127   C     0.26612   0.64977   0.89291   0.00000  Uiso   1.00
O128   O     0.46738   0.71560   0.93537   0.00000  Uiso   1.00
C129   C     0.42994   0.85588   0.85085   0.00000  Uiso   1.00
C130   C     0.36327   0.76319   1.00574   0.00000  Uiso   1.00
O131   O     0.39425   0.74810   0.55980   0.00000  Uiso   1.00
O132   O     0.49723   0.72688   0.66225   0.00000  Uiso   1.00
C133   C     0.48724   0.89129   0.64100   0.00000  Uiso   1.00
C134   C     0.93568   0.23859   0.06589   0.00000  Uiso   1.00
O135   O     0.95197   0.16601   0.20601   0.00000  Uiso   1.00
O136   O     0.56897   0.12640   0.24985   0.00000  Uiso   1.00
O137   O     0.60879   0.25316   0.32170   0.00000  Uiso   1.00
O138   O     0.89011   0.08380   0.47376   0.00000  Uiso   1.00
O139   O     0.94827   0.26765   0.28721   0.00000  Uiso   1.00
O140   O     0.76421   0.24395   0.28132   0.00000  Uiso   1.00
O141   O     0.80123   0.10761   0.35823   0.00000  Uiso   1.00
O142   O     0.92339   0.18486   0.56793   0.00000  Uiso   1.00
C143   C     0.73044   0.02960   0.61560   0.00000  Uiso   1.00
C144   C     0.91483   0.11035   0.70342   0.00000  Uiso   1.00
O145   O     0.67608   0.31324   0.19100   0.00000  Uiso   1.00
C146   C     0.55702   0.21508   0.08981   0.00000  Uiso   1.00
C147   C     0.77472   0.30828   0.08514   0.00000  Uiso   1.00
C148   C     0.99805   0.51259   0.15224   0.00000  Uiso   1.00
C149   C     0.71245   0.52613   0.22819   0.00000  Uiso   1.00
C150   C     0.79298   0.59210   0.36111   0.00000  Uiso   1.00
C151   C     0.83556   0.73713   0.23144   0.00000  Uiso   1.00
O152   O     0.62770   0.60030   0.29176   0.00000  Uiso   1.00
O153   O     0.84250   0.50610   0.96522   0.00000  Uiso   1.00
O154   O     0.68561   0.41655   0.06025   0.00000  Uiso   1.00
C155   C     0.80269   0.62117   0.01883   0.00000  Uiso   1.00
C156   C     0.72497   0.25251   0.49328   0.00000  Uiso   1.00
O157   O     0.85525   0.26073   0.39227   0.00000  Uiso   1.00
C158   C     0.85827   0.43191   0.37988   0.00000  Uiso   1.00
O159   O     0.93843   0.36363   0.48382   0.00000  Uiso   1.00
O160   O     0.56448   0.40370   0.48653   0.00000  Uiso   1.00
C161   C     0.73851   0.47378   0.54767   0.00000  Uiso   1.00
C162   C     0.66174   0.59211   0.52377   0.00000  Uiso   1.00
C163   C     0.55200   0.40316   0.62605   0.00000  Uiso   1.00
C164   C     0.70941   0.12009   0.77863   0.00000  Uiso   1.00
O165   O     0.81040   0.20035   0.65154   0.00000  Uiso   1.00
C166   C     0.73817   0.30916   0.69580   0.00000  Uiso   1.00
C167   C     0.90723   0.30584   0.76183   0.00000  Uiso   1.00
C168   C     0.77743   0.35244   0.90023   0.00000  Uiso   1.00
C169   C     0.59161   0.38978   0.82976   0.00000  Uiso   1.00
O170   O     0.67803   0.49697   0.92595   0.00000  Uiso   1.00
O171   O     0.50265   0.46797   0.89205   0.00000  Uiso   1.00
O172   O     0.62536   0.87251   0.13210   0.00000  Uiso   1.00
O173   O     0.80019   1.04260   0.13566   0.00000  Uiso   1.00
C174   C     0.73210   1.00002   0.00491   0.00000  Uiso   1.00
C175   C     1.02528   1.13317   0.95672   0.00000  Uiso   1.00
C176   C     1.13981   1.08383   0.07106   0.00000  Uiso   1.00
O177   O     0.99011   1.10252   0.10713   0.00000  Uiso   1.00
C178   C     0.92954   0.93362   1.05895   0.00000  Uiso   1.00
O179   O     0.56815   0.74388   0.46616   0.00000  Uiso   1.00
O180   O     0.71048   0.93626   0.44918   0.00000  Uiso   1.00
O181   O     0.58500   0.85184   0.54980   0.00000  Uiso   1.00
C182   C     0.98026   0.97898   0.28058   0.00000  Uiso   1.00
C183   C     0.63390   1.04867   0.08918   0.00000  Uiso   1.00
C184   C     0.75455   0.89841   0.26853   0.00000  Uiso   1.00
C185   C     0.81493   0.81820   0.39225   0.00000  Uiso   1.00
O186   O     0.87112   1.00720   0.37087   0.00000  Uiso   1.00
O187   O     0.66727   0.59361   0.80495   0.00000  Uiso   1.00
C188   C     0.78874   0.58611   0.70416   0.00000  Uiso   1.00
C189   C     0.86840   0.75436   0.77642   0.00000  Uiso   1.00
O190   O     0.87357   0.79275   0.57556   0.00000  Uiso   1.00
O191   O     0.71489   0.80270   0.54939   0.00000  Uiso   1.00
O192   O     0.73074   0.71153   0.67556   0.00000  Uiso   1.00
C193   C     0.84869   0.90944   0.63858   0.00000  Uiso   1.00
H194   H     0.23952   1.05587   0.35334   0.00000  Uiso   1.00
H195   H     0.11543   0.93529   0.37011   0.00000  Uiso   1.00
H196   H     0.21555   0.95409   0.42294   0.00000  Uiso   1.00
H197   H     0.05349   0.73626   1.01180   0.00000  Uiso   1.00
H198   H     0.13949   0.71323   0.98279   0.00000  Uiso   1.00
H199   H     0.02838   0.68847   0.93311   0.00000  Uiso   1.00
H200   H     0.08227   0.80808   0.79636   0.00000  Uiso   1.00
H201   H     0.17989   0.78862   0.80972   0.00000  Uiso   1.00
H202   H     0.21946   0.90801   0.77828   0.00000  Uiso   1.00
H203   H     0.02163  -0.13272   0.89664   0.00000  Uiso   1.00
H204   H     0.13856  -0.00747   0.87235   0.00000  Uiso   1.00
H205   H     0.09620  -0.07451   0.96164   0.00000  Uiso   1.00
H206   H     0.18723   0.07388   0.67630   0.00000  Uiso   1.00
H207   H     0.10606   0.00501   0.60905   0.00000  Uiso   1.00
H208   H     0.05514   0.00495   0.69274   0.00000  Uiso   1.00
H209   H     0.17020   0.24920   0.15922   0.00000  Uiso   1.00
H210   H     0.29693   0.34977   0.11441   0.00000  Uiso   1.00
H211   H     0.18372   0.30824   0.07366   0.00000  Uiso   1.00
H212   H     0.16135   0.52152   0.09207   0.00000  Uiso   1.00
H213   H     0.15900   0.44952   0.04127   0.00000  Uiso   1.00
H214   H     0.27588   0.54868   0.05529   0.00000  Uiso   1.00
H215   H     0.23076   0.77784   0.16879   0.00000  Uiso   1.00
H216   H     0.19623   0.70867   0.10276   0.00000  Uiso   1.00
H217   H     0.27005   0.68835   0.17125   0.00000  Uiso   1.00
H218   H     0.98559   0.66193   0.18469   0.00000  Uiso   1.00
H219   H     1.08003   0.72043   0.23974   0.00000  Uiso   1.00
H220   H     0.96339   0.60274   0.27456   0.00000  Uiso   1.00
H221   H     0.09667   0.44811   0.63149   0.00000  Uiso   1.00
H222   H     0.07408   0.34315   0.59703   0.00000  Uiso   1.00
H223   H    -0.02011   0.34409   0.64459   0.00000  Uiso   1.00
H224   H     0.87838   0.43839   0.58547   0.00000  Uiso   1.00
H225   H     0.94033   0.54010   0.50521   0.00000  Uiso   1.00
H226   H     0.99783   0.54081   0.58646   0.00000  Uiso   1.00
H227   H     0.17926   0.10619   0.78275   0.00000  Uiso   1.00
H228   H     0.05578   0.09053   0.78580   0.00000  Uiso   1.00
H229   H     0.14760   0.15731   0.83836   0.00000  Uiso   1.00
H230   H     0.15035   0.37116   0.70468   0.00000  Uiso   1.00
H231   H     0.23615   0.39593   0.76767   0.00000  Uiso   1.00
H232   H     0.10114   0.29758   0.78739   0.00000  Uiso   1.00
H233   H     0.35545   0.37971   0.67378   0.00000  Uiso   1.00
H234   H     0.33131   0.26238   0.66780   0.00000  Uiso   1.00
H235   H     0.37249   0.31393   0.74117   0.00000  Uiso   1.00
H236   H     0.03681   0.46425   0.91684   0.00000  Uiso   1.00
H237   H    -0.05789   0.38530   0.98370   0.00000  Uiso   1.00
H238   H     0.02630   0.51341   0.98761   0.00000  Uiso   1.00
H239   H    -0.04869   0.54872   0.78870   0.00000  Uiso   1.00
H240   H     0.03135   0.62700   0.84103   0.00000  Uiso   1.00
H241   H    -0.08651   0.61634   0.82297   0.00000  Uiso   1.00
H242   H     0.10344   0.70588   0.44269   0.00000  Uiso   1.00
H243   H     0.03238   0.62305   0.39168   0.00000  Uiso   1.00
H244   H     0.15475   0.74418   0.35360   0.00000  Uiso   1.00
H245   H     0.08105   0.87029   0.65491   0.00000  Uiso   1.00
H246   H     0.13181   0.83941   0.59461   0.00000  Uiso   1.00
H247   H     0.02190   0.74397   0.64827   0.00000  Uiso   1.00
H248   H     0.96903   0.68970   0.51564   0.00000  Uiso   1.00
H249   H     1.05838   0.80294   0.46993   0.00000  Uiso   1.00
H250   H     0.93085   0.75668   0.45383   0.00000  Uiso   1.00
H251   H     0.33832  -0.00396   0.24704   0.00000  Uiso   1.00
H252   H     0.37116   0.03206   0.32719   0.00000  Uiso   1.00
H253   H     0.32594  -0.09320   0.31591   0.00000  Uiso   1.00
H254   H     0.61991   0.98980   0.35269   0.00000  Uiso   1.00
H255   H     0.50114   0.92620   0.39705   0.00000  Uiso   1.00
H256   H     0.59421   1.06503   0.38387   0.00000  Uiso   1.00
H257   H     0.30873   0.18394   0.16535   0.00000  Uiso   1.00
H258   H     0.19192   0.14515   0.20714   0.00000  Uiso   1.00
H259   H     0.25993   0.08509   0.23825   0.00000  Uiso   1.00
H260   H     0.49347   0.41495   0.25180   0.00000  Uiso   1.00
H261   H     0.38815   0.39986   0.20399   0.00000  Uiso   1.00
H262   H     0.46932   0.37105   0.17194   0.00000  Uiso   1.00
H263   H     0.37559   0.08400   0.43743   0.00000  Uiso   1.00
H264   H     0.49423   0.18029   0.47416   0.00000  Uiso   1.00
H265   H     0.49292   0.09291   0.43368   0.00000  Uiso   1.00
H266   H     0.25220  -0.08438   1.06771   0.00000  Uiso   1.00
H267   H     0.38243   0.00954   1.07973   0.00000  Uiso   1.00
H268   H     0.35517  -0.10742   1.07524   0.00000  Uiso   1.00
H269   H     0.52142  -0.01112   0.95903   0.00000  Uiso   1.00
H270   H     0.55243   0.10707   0.96674   0.00000  Uiso   1.00
H271   H     0.52664   0.08230   0.89002   0.00000  Uiso   1.00
H272   H     0.27671   0.07788   0.95384   0.00000  Uiso   1.00
H273   H     0.36227   0.12696   0.88228   0.00000  Uiso   1.00
H274   H     0.40473   0.16119   0.96633   0.00000  Uiso   1.00
H275   H     0.35790   0.14001   0.74654   0.00000  Uiso   1.00
H276   H     0.48934   0.18110   0.73888   0.00000  Uiso   1.00
H277   H     0.38699   0.05507   0.76626   0.00000  Uiso   1.00
H278   H     0.57329   0.22468   0.58037   0.00000  Uiso   1.00
H279   H     0.51990   0.09548   0.57349   0.00000  Uiso   1.00
H280   H     0.56711   0.13577   0.65345   0.00000  Uiso   1.00
H281   H     0.32907  -0.03847   0.59335   0.00000  Uiso   1.00
H282   H     0.23138  -0.02445   0.63027   0.00000  Uiso   1.00
H283   H     0.31760  -0.06021   0.68101   0.00000  Uiso   1.00
H284   H     0.45846   0.38378   0.04735   0.00000  Uiso   1.00
H285   H     0.45208   0.30222   0.00121   0.00000  Uiso   1.00
H286   H     0.33958   0.27640   0.03961   0.00000  Uiso   1.00
H287   H     0.26243   0.22485   0.92411   0.00000  Uiso   1.00
H288   H     0.36939   0.26767   0.86275   0.00000  Uiso   1.00
H289   H     0.28692   0.30753   0.83838   0.00000  Uiso   1.00
H290   H     0.34012   0.37525   0.55463   0.00000  Uiso   1.00
H291   H     0.45064   0.49928   0.56898   0.00000  Uiso   1.00
H292   H     0.44609   0.46513   0.49120   0.00000  Uiso   1.00
H293   H     0.26871   0.45470   0.62293   0.00000  Uiso   1.00
H294   H     0.24413   0.54445   0.56463   0.00000  Uiso   1.00
H295   H     0.36915   0.58535   0.58698   0.00000  Uiso   1.00
H296   H     0.32349   0.45610  -0.01092   0.00000  Uiso   1.00
H297   H     0.24484   0.39753  -0.07807   0.00000  Uiso   1.00
H298   H     0.35597   0.51774  -0.09436   0.00000  Uiso   1.00
H299   H     0.70554   0.74365   0.11462   0.00000  Uiso   1.00
H300   H     0.58952   0.63433   0.15813   0.00000  Uiso   1.00
H301   H     0.66721   0.74192   0.19973   0.00000  Uiso   1.00
H302   H     0.68598   0.76574  -0.10417   0.00000  Uiso   1.00
H303   H     0.73854   0.79991  -0.02585   0.00000  Uiso   1.00
H304   H     0.68907   0.86904  -0.08306   0.00000  Uiso   1.00
H305   H     0.56310   0.95252   0.22307   0.00000  Uiso   1.00
H306   H     0.45849   0.96065   0.17955   0.00000  Uiso   1.00
H307   H     0.43714   0.85652   0.24484   0.00000  Uiso   1.00
H308   H     0.51016   0.55086   0.98168   0.00000  Uiso   1.00
H309   H     0.45624   0.55954   1.05915   0.00000  Uiso   1.00
H310   H     0.59312   0.61446   1.05067   0.00000  Uiso   1.00
H311   H     0.48498   0.74552   0.29758   0.00000  Uiso   1.00
H312   H     0.55464   0.83633   0.34168   0.00000  Uiso   1.00
H313   H     0.41180   0.75823   0.35426   0.00000  Uiso   1.00
H314   H     0.43322   0.93228   0.48284   0.00000  Uiso   1.00
H315   H     0.30118   0.90266   0.49976   0.00000  Uiso   1.00
H316   H     0.33334   0.88652   0.42621   0.00000  Uiso   1.00
H317   H     0.22897   0.76130   0.62549   0.00000  Uiso   1.00
H318   H     0.17161   0.63515   0.62061   0.00000  Uiso   1.00
H319   H     0.13311   0.70905   0.56635   0.00000  Uiso   1.00
H320   H     0.27426   0.57096   0.69239   0.00000  Uiso   1.00
H321   H     0.31133   0.67222   0.72831   0.00000  Uiso   1.00
H322   H     0.28208   0.55984   0.78487   0.00000  Uiso   1.00
H323   H     0.42858   0.52885   0.67222   0.00000  Uiso   1.00
H324   H     0.42753   0.48490   0.76425   0.00000  Uiso   1.00
H325   H     0.54533   0.57848   0.71243   0.00000  Uiso   1.00
H326   H     0.48766   0.74578   0.80756   0.00000  Uiso   1.00
H327   H     0.59641   0.75142   0.77457   0.00000  Uiso   1.00
H328   H     0.51722   0.65230   0.83478   0.00000  Uiso   1.00
H329   H     0.26247   0.66336   0.83775   0.00000  Uiso   1.00
H330   H     0.19820   0.64065   0.90974   0.00000  Uiso   1.00
H331   H     0.25379   0.57806   0.91569   0.00000  Uiso   1.00
H332   H     0.51085   0.91203   0.85981   0.00000  Uiso   1.00
H333   H     0.38139   0.88427   0.85268   0.00000  Uiso   1.00
H334   H     0.42704   0.83742   0.80179   0.00000  Uiso   1.00
H335   H     0.31288   0.69379   1.03754   0.00000  Uiso   1.00
H336   H     0.31660   0.79427   0.99805   0.00000  Uiso   1.00
H337   H     0.43060   0.80838   1.02782   0.00000  Uiso   1.00
H338   H     0.48844   0.94508   0.59979   0.00000  Uiso   1.00
H339   H     0.54479   0.92440   0.68003   0.00000  Uiso   1.00
H340   H     0.41874   0.85827   0.67217   0.00000  Uiso   1.00
H341   H     0.99711   0.25845   0.03205   0.00000  Uiso   1.00
H342   H     0.96149   0.30188   0.08478   0.00000  Uiso   1.00
H343   H     0.86122   0.21207   0.04479   0.00000  Uiso   1.00
H344   H     0.70721  -0.03673   0.65922   0.00000  Uiso   1.00
H345   H     0.73643   0.02111   0.56651   0.00000  Uiso   1.00
H346   H     0.67912   0.05333   0.61491   0.00000  Uiso   1.00
H347   H     0.96191   0.08822   0.68573   0.00000  Uiso   1.00
H348   H     0.85698   0.04699   0.74164   0.00000  Uiso   1.00
H349   H     0.96610   0.17482   0.72396   0.00000  Uiso   1.00
H350   H     0.55562   0.14963   0.11338   0.00000  Uiso   1.00
H351   H     0.55701   0.22533   0.03415   0.00000  Uiso   1.00
H352   H     0.48725   0.20483   0.11193   0.00000  Uiso   1.00
H353   H     0.77380   0.29891   0.03195   0.00000  Uiso   1.00
H354   H     0.76369   0.24294   0.12509   0.00000  Uiso   1.00
H355   H     0.84471   0.37841   0.08832   0.00000  Uiso   1.00
H356   H     0.99721   0.54470   0.09988   0.00000  Uiso   1.00
H357   H     0.92623   0.45540   0.17831   0.00000  Uiso   1.00
H358   H     1.02892   0.46867   0.14735   0.00000  Uiso   1.00
H359   H     0.67389   0.45093   0.26076   0.00000  Uiso   1.00
H360   H     0.78323   0.54336   0.20621   0.00000  Uiso   1.00
H361   H     0.67177   0.53072   0.18489   0.00000  Uiso   1.00
H362   H     0.74481   0.51073   0.38254   0.00000  Uiso   1.00
H363   H     0.77855   0.61525   0.40458   0.00000  Uiso   1.00
H364   H     0.87178   0.61748   0.35811   0.00000  Uiso   1.00
H365   H     0.82804   0.73774   0.17484   0.00000  Uiso   1.00
H366   H     0.91354   0.75452   0.23117   0.00000  Uiso   1.00
H367   H     0.82772   0.79358   0.24308   0.00000  Uiso   1.00
H368   H     0.74681   0.63647   0.02317   0.00000  Uiso   1.00
H369   H     0.85952   0.68331  -0.01374   0.00000  Uiso   1.00
H370   H     0.83526   0.62086   0.06850   0.00000  Uiso   1.00
H371   H     0.74795   0.27667   0.54258   0.00000  Uiso   1.00
H372   H     0.69304   0.17133   0.50161   0.00000  Uiso   1.00
H373   H     0.66425   0.25820   0.46697   0.00000  Uiso   1.00
H374   H     0.92024   0.46663   0.33983   0.00000  Uiso   1.00
H375   H     0.87603   0.48443   0.41146   0.00000  Uiso   1.00
H376   H     0.78342   0.40978   0.36031   0.00000  Uiso   1.00
H377   H     0.71751   0.40256   0.54356   0.00000  Uiso   1.00
H378   H     0.77014   0.48920   0.59727   0.00000  Uiso   1.00
H379   H     0.78652   0.52462   0.50163   0.00000  Uiso   1.00
H380   H     0.73112   0.62997   0.55041   0.00000  Uiso   1.00
H381   H     0.60649   0.60104   0.54514   0.00000  Uiso   1.00
H382   H     0.67748   0.61533   0.46964   0.00000  Uiso   1.00
H383   H     0.58438   0.36411   0.65172   0.00000  Uiso   1.00
H384   H     0.46925   0.35339   0.61466   0.00000  Uiso   1.00
H385   H     0.54963   0.44895   0.65625   0.00000  Uiso   1.00
H386   H     0.64038   0.08200   0.75129   0.00000  Uiso   1.00
H387   H     0.69113   0.13756   0.82372   0.00000  Uiso   1.00
H388   H     0.74616   0.08097   0.79258   0.00000  Uiso   1.00
H389   H     0.80239   0.38670   0.69606   0.00000  Uiso   1.00
H390   H     0.67750   0.28434   0.73611   0.00000  Uiso   1.00
H391   H     0.71524   0.30643   0.64210   0.00000  Uiso   1.00
H392   H     0.95800   0.27970   0.76791   0.00000  Uiso   1.00
H393   H     0.87413   0.29047   0.81407   0.00000  Uiso   1.00
H394   H     0.94138   0.38507   0.74545   0.00000  Uiso   1.00
H395   H     0.70668   0.33770   0.91404   0.00000  Uiso   1.00
H396   H     0.78518   0.29297   0.92855   0.00000  Uiso   1.00
H397   H     0.78430   0.35191   0.84493   0.00000  Uiso   1.00
H398   H     0.55990   0.31450   0.86527   0.00000  Uiso   1.00
H399   H     0.66455   0.40963   0.80867   0.00000  Uiso   1.00
H400   H     0.55050   0.39053   0.78218   0.00000  Uiso   1.00
H401   H     0.67004   0.98194  -0.02594   0.00000  Uiso   1.00
H402   H     0.76277   0.95449   0.00635   0.00000  Uiso   1.00
H403   H     0.79055   1.07962  -0.01459   0.00000  Uiso   1.00
H404   H     0.95855   1.13603   0.95299   0.00000  Uiso   1.00
H405   H     1.02942   1.10221   0.91707   0.00000  Uiso   1.00
H406   H     1.09927   1.20604   0.95145   0.00000  Uiso   1.00
H407   H     1.19503   1.16186   0.07611   0.00000  Uiso   1.00
H408   H     1.17169   1.08002   0.02869   0.00000  Uiso   1.00
H409   H     1.12349   1.02389   0.11513   0.00000  Uiso   1.00
H410   H     0.93586   0.92188   1.00851   0.00000  Uiso   1.00
H411   H     0.85417   0.91509   1.07540   0.00000  Uiso   1.00
H412   H     0.94976   0.89035   1.09852   0.00000  Uiso   1.00
H413   H     0.99144   1.03195   0.22953   0.00000  Uiso   1.00
H414   H     0.98119   0.91773   0.27195   0.00000  Uiso   1.00
H415   H     1.04221   1.00128   0.31326   0.00000  Uiso   1.00
H416   H     0.65214   1.08264   0.13252   0.00000  Uiso   1.00
H417   H     0.55052   0.98924   0.08244   0.00000  Uiso   1.00
H418   H     0.66936   1.11052   0.04640   0.00000  Uiso   1.00
H419   H     0.73980   0.95448   0.26191   0.00000  Uiso   1.00
H420   H     0.68552   0.82536   0.29621   0.00000  Uiso   1.00
H421   H     0.78306   0.89862   0.21509   0.00000  Uiso   1.00
H422   H     0.83178   0.83173   0.44286   0.00000  Uiso   1.00
H423   H     0.83559   0.77440   0.37535   0.00000  Uiso   1.00
H424   H     0.73067   0.77375   0.39661   0.00000  Uiso   1.00
H425   H     0.81241   0.53934   0.74040   0.00000  Uiso   1.00
H426   H     0.85269   0.64048   0.66660   0.00000  Uiso   1.00
H427   H     0.72397   0.54139   0.67533   0.00000  Uiso   1.00
H428   H     0.93415   0.78973   0.73663   0.00000  Uiso   1.00
H429   H     0.88044   0.72098   0.82958   0.00000  Uiso   1.00
H430   H     0.84800   0.80507   0.78319   0.00000  Uiso   1.00
H431   H     0.90521   0.90617   0.67033   0.00000  Uiso   1.00
H432   H     0.79137   0.90602   0.66792   0.00000  Uiso   1.00
H433   H     0.88320   0.97529   0.59872   0.00000  Uiso   1.00
loop_
_geom_bond_atom_site_label_1
_geom_bond_atom_site_label_2
_geom_bond_distance
_geom_bond_site_symmetry_2
_ccdc_geom_bond_type
Si1    O53     1.663   .     S
Si1    O60     1.586   .     S
Si1    O135    1.633   1_455 S
Si1    O139    1.635   1_455 S
Si2    O54     1.613   .     S
Si2    O88     1.586   .     S
Si2    C52     1.895   1_545 S
Si2    O81     1.617   1_545 S
Si3    O57     1.555   .     S
Si3    O65     1.616   .     S
Si3    O138    1.619   1_455 S
Si3    O142    1.611   1_455 S
Si4    O53     1.631   .     S
Si4    O54     1.570   .     S
Si4    O66     1.576   .     S
Si4    O87     1.621   .     S
Si5    C58     1.891   .     S
Si5    O92     1.622   .     S
Si5    C55     1.902   1_545 S
Si5    C56     1.888   1_545 S
Si6    O57     1.603   .     S
Si6    C59     1.841   .     S
Si6    O72     1.618   .     S
Si6    O89     1.577   .     S
Si7    O60     1.582   .     S
Si7    C61     1.891   .     S
Si7    C62     1.824   .     S
Si7    O100    1.594   .     S
Si8    C63     1.889   .     S
Si8    O69     1.575   .     S
Si8    C64     1.848   1_455 S
Si8    C148    1.858   1_455 S
Si9    O65     1.672   .     S
Si9    O66     1.573   .     S
Si9    O70     1.598   .     S
Si9    O106    1.582   .     S
Si10   C67     1.863   .     S
Si10   O77     1.555   .     S
Si10   C68     1.853   1_455 S
Si10   O159    1.571   1_455 S
Si11   O69     1.599   .     S
Si11   O70     1.563   .     S
Si11   O78     1.593   .     S
Si11   O101    1.554   .     S
Si12   C71     1.859   .     S
Si12   O72     1.597   .     S
Si12   C73     1.873   .     S
Si12   C74     1.844   .     S
Si13   C75     1.829   .     S
Si13   C76     1.887   .     S
Si13   O153    1.586   1_455 S
Si13   C168    1.901   1_455 S
Si14   O77     1.581   .     S
Si14   O78     1.575   .     S
Si14   C79     1.865   .     S
Si14   O121    1.610   .     S
Si15   C80     1.852   .     S
Si15   O81     1.626   .     S
Si15   C82     1.801   1_455 S
Si15   O190    1.657   1_455 S
Si16   C83     1.848   .     S
Si16   O136    1.584   .     S
Si16   C84     1.838   1_545 S
Si16   C116    1.855   1_545 S
Si17   C85     1.846   .     S
Si17   C86     1.911   .     S
Si17   O87     1.612   .     S
Si17   O90     1.617   .     S
Si18   O88     1.575   .     S
Si18   O89     1.609   .     S
Si18   O96     1.635   .     S
Si18   O104    1.627   .     S
Si19   O90     1.579   .     S
Si19   C91     1.881   .     S
Si19   O105    1.566   .     S
Si19   O137    1.621   .     S
Si20   O92     1.611   .     S
Si20   C93     1.849   .     S
Si20   C94     1.848   .     S
Si20   C95     1.888   .     S
Si21   O96     1.615   .     S
Si21   C97     1.888   .     S
Si21   C98     1.848   .     S
Si21   C99     1.871   .     S
Si22   O100    1.622   .     S
Si22   O101    1.608   .     S
Si22   O109    1.587   .     S
Si22   O111    1.646   .     S
Si23   C102    1.822   .     S
Si23   C112    1.854   .     S
Si23   C103    1.830   1_554 S
Si23   O171    1.614   1_554 S
Si24   O104    1.590   .     S
Si24   O105    1.586   .     S
Si24   O110    1.550   .     S
Si24   O160    1.616   .     S
Si25   O106    1.608   .     S
Si25   C107    1.768   .     S
Si25   C108    1.854   .     S
Si25   O118    1.599   .     S
Si26   O109    1.651   .     S
Si26   O110    1.670   .     S
Si26   O119    1.589   .     S
Si26   O152    1.608   .     S
Si27   O111    1.668   .     S
Si27   C113    1.831   .     S
Si27   O114    1.589   .     S
Si27   O172    1.636   .     S
Si28   O114    1.596   .     S
Si28   C115    1.881   .     S
Si28   C117    1.826   1_554 S
Si28   O128    1.607   1_554 S
Si29   O118    1.618   .     S
Si29   O119    1.667   .     S
Si29   C120    1.835   .     S
Si29   O179    1.596   .     S
Si30   O121    1.600   .     S
Si30   C122    1.864   .     S
Si30   C123    1.846   .     S
Si30   O131    1.607   .     S
Si31   C124    1.875   .     S
Si31   C125    1.791   .     S
Si31   C126    1.837   .     S
Si31   O132    1.535   .     S
Si32   C127    1.861   .     S
Si32   O128    1.599   .     S
Si32   C129    1.869   .     S
Si32   C130    1.893   .     S
Si33   O131    1.588   .     S
Si33   O132    1.615   .     S
Si33   C133    1.856   .     S
Si33   O181    1.576   .     S
Si34   C134    1.913   .     S
Si34   O135    1.619   .     S
Si34   O173    1.641   1_545 S
Si34   O177    1.618   1_545 S
Si35   O136    1.618   .     S
Si35   O137    1.633   .     S
Si35   O140    1.699   .     S
Si35   O145    1.608   .     S
Si36   O138    1.627   .     S
Si36   O141    1.613   .     S
Si36   O180    1.617   1_545 S
Si36   O186    1.558   1_545 S
Si37   O139    1.625   .     S
Si37   O140    1.638   .     S
Si37   O141    1.611   .     S
Si37   O157    1.561   .     S
Si38   O142    1.612   .     S
Si38   C143    1.808   .     S
Si38   C144    1.815   .     S
Si38   O165    1.611   .     S
Si39   O145    1.591   .     S
Si39   C146    1.836   .     S
Si39   C147    1.879   .     S
Si39   O154    1.604   .     S
Si40   C149    1.830   .     S
Si40   C150    1.893   .     S
Si40   C151    1.858   .     S
Si40   O152    1.644   .     S
Si41   O154    1.656   .     S
Si41   C155    1.884   .     S
Si41   O153    1.625   1_554 S
Si41   O170    1.616   1_554 S
Si42   C156    1.921   .     S
Si42   O157    1.588   .     S
Si42   C158    1.822   .     S
Si42   O159    1.591   .     S
Si43   O160    1.587   .     S
Si43   C161    1.774   .     S
Si43   C162    1.846   .     S
Si43   C163    1.800   .     S
Si44   C164    1.831   .     S
Si44   O165    1.587   .     S
Si44   C166    1.919   .     S
Si44   C167    1.853   .     S
Si45   C169    1.866   .     S
Si45   O170    1.578   .     S
Si45   O171    1.626   .     S
Si45   O187    1.651   .     S
Si46   O172    1.628   .     S
Si46   O173    1.595   .     S
Si46   C174    1.862   .     S
Si46   C183    1.834   .     S
Si47   C176    1.855   .     S
Si47   O177    1.600   .     S
Si47   C175    1.917   1_554 S
Si47   C178    1.844   1_554 S
Si48   O179    1.659   .     S
Si48   O180    1.606   .     S
Si48   O181    1.558   .     S
Si48   O191    1.622   .     S
Si49   C182    1.896   .     S
Si49   C184    1.893   .     S
Si49   C185    1.883   .     S
Si49   O186    1.523   .     S
Si50   O187    1.628   .     S
Si50   C188    1.886   .     S
Si50   C189    1.850   .     S
Si50   O192    1.606   .     S
Si51   O190    1.616   .     S
Si51   O191    1.617   .     S
Si51   O192    1.656   .     S
Si51   C193    1.761   .     S
C52    H194    1.131   .     S
C52    H195    1.094   .     S
C52    H196    1.132   .     S
C52    Si2     1.895   1_565 S
C55    H197    1.137   .     S
C55    H198    1.099   .     S
C55    H199    1.116   .     S
C55    Si5     1.902   1_565 S
C56    H200    1.101   .     S
C56    H201    1.057   .     S
C56    H202    1.118   .     S
C56    Si5     1.888   1_565 S
C58    H203    1.088   .     S
C58    H204    1.096   .     S
C58    H205    1.143   .     S
C59    H206    1.107   .     S
C59    H207    1.172   .     S
C59    H208    1.144   .     S
C61    H209    1.136   .     S
C61    H210    1.098   .     S
C61    H211    1.102   .     S
C62    H212    1.061   .     S
C62    H213    1.096   .     S
C62    H214    1.099   .     S
C63    H215    1.152   .     S
C63    H216    1.154   .     S
C63    H217    1.148   .     S
C64    H218    1.111   .     S
C64    H219    1.073   .     S
C64    H220    1.099   .     S
C64    Si8     1.848   1_655 S
C67    H221    1.093   .     S
C67    H222    1.139   .     S
C67    H223    1.138   .     S
C68    H224    1.095   .     S
C68    H225    1.146   .     S
C68    H226    1.088   .     S
C68    Si10    1.853   1_655 S
C71    H227    1.170   .     S
C71    H228    1.080   .     S
C71    H229    1.081   .     S
C73    H230    1.033   .     S
C73    H231    1.127   .     S
C73    H232    1.112   .     S
C74    H233    1.082   .     S
C74    H234    1.090   .     S
C74    H235    1.093   .     S
C75    H236    1.091   .     S
C75    H237    1.122   .     S
C75    H238    1.119   .     S
C76    H239    1.124   .     S
C76    H240    1.101   .     S
C76    H241    1.118   .     S
C79    H242    1.109   .     S
C79    H243    1.111   .     S
C79    H244    1.127   .     S
C80    H245    1.117   .     S
C80    H246    1.112   .     S
C80    H247    1.149   .     S
O81    Si2     1.617   1_565 S
C82    H248    1.068   .     S
C82    H249    1.036   .     S
C82    H250    1.114   .     S
C82    Si15    1.801   1_655 S
C83    H251    1.054   .     S
C83    H252    1.086   .     S
C83    H253    1.123   .     S
C84    H254    1.105   .     S
C84    H255    1.122   .     S
C84    H256    1.135   .     S
C84    Si16    1.838   1_565 S
C85    H257    1.070   .     S
C85    H258    1.131   .     S
C85    H259    1.085   .     S
C86    H260    1.120   .     S
C86    H261    1.087   .     S
C86    H262    1.077   .     S
C91    H263    1.141   .     S
C91    H264    1.129   .     S
C91    H265    1.134   .     S
C93    H266    1.126   .     S
C93    H267    1.064   .     S
C93    H268    1.126   .     S
C94    H269    1.155   .     S
C94    H270    1.122   .     S
C94    H271    1.077   .     S
C95    H272    1.090   .     S
C95    H273    1.086   .     S
C95    H274    1.083   .     S
C97    H275    1.086   .     S
C97    H276    1.108   .     S
C97    H277    1.121   .     S
C98    H278    1.106   .     S
C98    H279    1.185   .     S
C98    H280    1.111   .     S
C99    H281    1.126   .     S
C99    H282    1.123   .     S
C99    H283    1.137   .     S
C102   H284    1.095   .     S
C102   H285    1.095   .     S
C102   H286    1.076   .     S
C103   H287    1.123   .     S
C103   H288    1.126   .     S
C103   H289    1.149   .     S
C103   Si23    1.830   1_556 S
C107   H290    1.117   .     S
C107   H291    1.094   .     S
C107   H292    1.092   .     S
C108   H293    1.098   .     S
C108   H294    1.084   .     S
C108   H295    1.138   .     S
C112   H296    1.112   .     S
C112   H297    1.090   .     S
C112   H298    1.111   .     S
C113   H299    1.115   .     S
C113   H300    1.106   .     S
C113   H301    1.107   .     S
C115   H302    1.155   .     S
C115   H303    1.107   .     S
C115   H304    1.158   .     S
C116   H305    1.086   .     S
C116   H306    1.122   .     S
C116   H307    1.119   .     S
C116   Si16    1.855   1_565 S
C117   H308    1.132   .     S
C117   H309    1.137   .     S
C117   H310    1.114   .     S
C117   Si28    1.826   1_556 S
C120   H311    1.040   .     S
C120   H312    1.077   .     S
C120   H313    1.141   .     S
C122   H314    1.147   .     S
C122   H315    1.095   .     S
C122   H316    1.127   .     S
C123   H317    1.123   .     S
C123   H318    1.106   .     S
C123   H319    1.134   .     S
C124   H320    1.126   .     S
C124   H321    1.111   .     S
C124   H322    1.064   .     S
C125   H323    1.080   .     S
C125   H324    1.128   .     S
C125   H325    1.100   .     S
C126   H326    1.146   .     S
C126   H327    1.027   .     S
C126   H328    1.082   .     S
C127   H329    1.084   .     S
C127   H330    1.074   .     S
C127   H331    1.106   .     S
O128   Si28    1.607   1_556 S
C129   H332    1.133   .     S
C129   H333    1.122   .     S
C129   H334    1.087   .     S
C130   H335    1.059   .     S
C130   H336    1.114   .     S
C130   H337    1.052   .     S
C133   H338    1.079   .     S
C133   H339    1.138   .     S
C133   H340    1.076   .     S
C134   H341    1.076   .     S
C134   H342    1.061   .     S
C134   H343    1.103   .     S
O135   Si1     1.633   1_655 S
O138   Si3     1.619   1_655 S
O139   Si1     1.635   1_655 S
O142   Si3     1.611   1_655 S
C143   H344    1.145   .     S
C143   H345    1.044   .     S
C143   H346    1.093   .     S
C144   H347    1.113   .     S
C144   H348    1.106   .     S
C144   H349    1.090   .     S
C146   H350    1.093   .     S
C146   H351    1.091   .     S
C146   H352    1.134   .     S
C147   H353    1.110   .     S
C147   H354    1.144   .     S
C147   H355    1.100   .     S
C148   H356    1.074   .     S
C148   H357    1.072   .     S
C148   H358    1.118   .     S
C148   Si8     1.858   1_655 S
C149   H359    1.115   .     S
C149   H360    1.096   .     S
C149   H361    1.065   .     S
C150   H362    1.131   .     S
C150   H363    1.115   .     S
C150   H364    1.081   .     S
C151   H365    1.132   .     S
C151   H366    1.109   .     S
C151   H367    1.103   .     S
O153   Si13    1.586   1_655 S
O153   Si41    1.625   1_556 S
C155   H368    1.071   .     S
C155   H369    1.036   .     S
C155   H370    1.093   .     S
C156   H371    1.114   .     S
C156   H372    1.143   .     S
C156   H373    1.114   .     S
C158   H374    1.106   .     S
C158   H375    1.102   .     S
C158   H376    1.108   .     S
O159   Si10    1.571   1_655 S
C161   H377    1.078   .     S
C161   H378    1.101   .     S
C161   H379    1.092   .     S
C162   H380    1.098   .     S
C162   H381    1.101   .     S
C162   H382    1.066   .     S
C163   H383    1.079   .     S
C163   H384    1.146   .     S
C163   H385    1.100   .     S
C164   H386    1.103   .     S
C164   H387    1.113   .     S
C164   H388    1.090   .     S
C166   H389    1.131   .     S
C166   H390    1.128   .     S
C166   H391    1.117   .     S
C167   H392    1.109   .     S
C167   H393    1.116   .     S
C167   H394    1.104   .     S
C168   H395    1.055   .     S
C168   H396    1.108   .     S
C168   H397    1.124   .     S
C168   Si13    1.901   1_655 S
C169   H398    1.148   .     S
C169   H399    1.103   .     S
C169   H400    1.123   .     S
O170   Si41    1.616   1_556 S
O171   Si23    1.614   1_556 S
O173   Si34    1.641   1_565 S
C174   H401    1.060   .     S
C174   H402    1.114   .     S
C174   H403    1.121   .     S
C175   H404    1.090   .     S
C175   H405    1.067   .     S
C175   H406    1.126   .     S
C175   Si47    1.917   1_556 S
C176   H407    1.133   .     S
C176   H408    1.050   .     S
C176   H409    1.105   .     S
O177   Si34    1.618   1_565 S
C178   H410    1.094   .     S
C178   H411    1.115   .     S
C178   H412    1.115   .     S
C178   Si47    1.844   1_556 S
O180   Si36    1.617   1_565 S
C182   H413    1.152   .     S
C182   H414    1.095   .     S
C182   H415    1.076   .     S
C183   H416    1.082   .     S
C183   H417    1.162   .     S
C183   H418    1.079   .     S
C184   H419    1.078   .     S
C184   H420    1.147   .     S
C184   H421    1.191   .     S
C185   H422    1.073   .     S
C185   H423    1.081   .     S
C185   H424    1.116   .     S
O186   Si36    1.558   1_565 S
C188   H425    1.158   .     S
C188   H426    1.100   .     S
C188   H427    1.104   .     S
C189   H428    1.141   .     S
C189   H429    1.150   .     S
C189   H430    1.108   .     S
O190   Si15    1.657   1_655 S
C193   H431    1.089   .     S
C193   H432    1.089   .     S
C193   H433    1.081   .     S
