data_333-13-11-12-15-30-4
_audit_creation_date              2025-03-07
_audit_creation_method            'Materials Studio'
_symmetry_space_group_name_H-M    'P1'
_symmetry_Int_Tables_number       1
_symmetry_cell_setting            triclinic
loop_
_symmetry_equiv_pos_as_xyz
  x,y,z
_cell_length_a                    17.6694
_cell_length_b                    16.5887
_cell_length_c                    17.8303
_cell_angle_alpha                 93.3865
_cell_angle_beta                  86.8080
_cell_angle_gamma                 123.5351
loop_
_atom_site_label
_atom_site_type_symbol
_atom_site_fract_x
_atom_site_fract_y
_atom_site_fract_z
_atom_site_U_iso_or_equiv
_atom_site_adp_type
_atom_site_occupancy
Si1    Si    0.17749   0.02295   0.13402   0.00000  Uiso   1.00
Si2    Si   -0.04889   0.10974   0.28280   0.00000  Uiso   1.00
Si3    Si    0.08996  -0.05631   0.44741   0.00000  Uiso   1.00
Si4    Si   -0.02741   0.14630   0.53668   0.00000  Uiso   1.00
Si5    Si    0.08473   0.09139   0.36695   0.00000  Uiso   1.00
Si6    Si    0.31141   0.40225   0.08484   0.00000  Uiso   1.00
Si7    Si    0.05024   0.41585   0.20887   0.00000  Uiso   1.00
Si8    Si    0.15628   0.28671   0.44810   0.00000  Uiso   1.00
Si9    Si    0.17417   0.42910   0.32397   0.00000  Uiso   1.00
Si10   Si    0.16070   0.57127   0.74211   0.00000  Uiso   1.00
Si11   Si   -0.01713   0.87598   0.20398   0.00000  Uiso   1.00
Si12   Si    0.24621   0.93631   0.00870   0.00000  Uiso   1.00
Si13   Si   -0.02919   0.74392   0.51380   0.00000  Uiso   1.00
Si14   Si    0.17916   0.72041   0.86313   0.00000  Uiso   1.00
Si15   Si    0.09317   0.81514   0.79773   0.00000  Uiso   1.00
Si16   Si    0.52797   0.00311   0.13859   0.00000  Uiso   1.00
Si17   Si    0.24233   0.15619   0.26420   0.00000  Uiso   1.00
Si18   Si    0.53005   0.18128   0.10083   0.00000  Uiso   1.00
Si19   Si    0.48065  -0.00921   0.78523   0.00000  Uiso   1.00
Si20   Si    0.42329   0.12169   0.71118   0.00000  Uiso   1.00
Si21   Si    0.35900   0.51655   0.23529   0.00000  Uiso   1.00
Si22   Si    0.57299   0.59452   0.04494   0.00000  Uiso   1.00
Si23   Si    0.30347   0.45122   0.56267   0.00000  Uiso   1.00
Si24   Si    0.49518   0.52488   0.34916   0.00000  Uiso   1.00
Si25   Si    0.36733   0.27412   0.75152   0.00000  Uiso   1.00
Si26   Si    0.43803   0.47842   0.68386   0.00000  Uiso   1.00
Si27   Si    0.49223   0.69122   0.13756   0.00000  Uiso   1.00
Si28   Si    0.33742   0.88176   0.21210   0.00000  Uiso   1.00
Si29   Si    0.49966   0.83734   0.02638   0.00000  Uiso   1.00
Si30   Si    0.47437   0.63222   0.48589   0.00000  Uiso   1.00
Si31   Si    0.36635   0.84191   0.57510   0.00000  Uiso   1.00
Si32   Si    0.50996   0.78714   0.37154   0.00000  Uiso   1.00
Si33   Si    0.46145   0.66860   0.77556   0.00000  Uiso   1.00
Si34   Si    0.36716   0.86882   0.93432   0.00000  Uiso   1.00
Si35   Si    0.49663   0.83646   0.67302   0.00000  Uiso   1.00
Si36   Si    0.80058   0.00052   0.17708   0.00000  Uiso   1.00
Si37   Si    0.65016   0.10255   0.27763   0.00000  Uiso   1.00
Si38   Si    0.80522  -0.03235   0.45512   0.00000  Uiso   1.00
Si39   Si    0.79784   0.11314   0.36463   0.00000  Uiso   1.00
Si40   Si    0.64514   0.15182   0.87049   0.00000  Uiso   1.00
Si41   Si    0.86082   0.20983   0.62927   0.00000  Uiso   1.00
Si42   Si    0.97583   0.32371   0.05417   0.00000  Uiso   1.00
Si43   Si    0.81803   0.55244   0.01317   0.00000  Uiso   1.00
Si44   Si    0.58835   0.49096   0.58733   0.00000  Uiso   1.00
Si45   Si    0.95860   0.50131   0.29386   0.00000  Uiso   1.00
Si46   Si    0.79246   0.34146   0.60749   0.00000  Uiso   1.00
Si47   Si    0.72340   0.52212  -0.12714   0.00000  Uiso   1.00
Si48   Si    0.65478   0.82216   0.25123   0.00000  Uiso   1.00
Si49   Si    0.63937   0.81486   0.57776   0.00000  Uiso   1.00
Si50   Si    0.82463   0.84407   0.31706   0.00000  Uiso   1.00
Si51   Si    0.60756   0.82653   0.88259   0.00000  Uiso   1.00
C52    C     0.13192   0.05885   0.06029   0.00000  Uiso   1.00
C53    C     0.16425   0.01093   0.52783   0.00000  Uiso   1.00
C54    C     0.14902   0.91022   0.37233   0.00000  Uiso   1.00
C55    C     0.01647   0.12320   0.62097   0.00000  Uiso   1.00
O56    O    -0.00317   0.08541   0.34237   0.00000  Uiso   1.00
O57    O     0.05468  -0.00140   0.41295   0.00000  Uiso   1.00
C58    C     0.04430   0.18545   0.22160   0.00000  Uiso   1.00
C59    C     0.18925   0.31704   0.09666   0.00000  Uiso   1.00
C60    C     0.34755   0.32039   0.04358   0.00000  Uiso   1.00
C61    C     0.31102   0.48696   0.01454   0.00000  Uiso   1.00
C62    C     0.15479   0.52174   0.17301   0.00000  Uiso   1.00
O63    O     0.05875   0.23643   0.49424   0.00000  Uiso   1.00
O64    O     0.15116   0.19154   0.41338   0.00000  Uiso   1.00
O65    O     0.08292   0.38684   0.27565   0.00000  Uiso   1.00
O66    O     0.16246   0.34292   0.37379   0.00000  Uiso   1.00
C67    C     0.19388   0.52611   0.39167   0.00000  Uiso   1.00
C68    C     0.06829   0.51281   0.67556   0.00000  Uiso   1.00
C69    C     0.12980   0.47235   0.80787   0.00000  Uiso   1.00
C70    C    -0.02797   0.76109   0.22573   0.00000  Uiso   1.00
O71    O     0.09011   0.94947   0.18938   0.00000  Uiso   1.00
C72    C     0.13706   0.81706   0.01699   0.00000  Uiso   1.00
O73    O     0.23502   0.98645   0.08798   0.00000  Uiso   1.00
C74    C     0.24933   1.00538   0.92994   0.00000  Uiso   1.00
O75    O     0.00602   0.83996   0.47461   0.00000  Uiso   1.00
C76    C     0.90641   0.74756   0.59633   0.00000  Uiso   1.00
C77    C     0.89762   0.64076   0.44754   0.00000  Uiso   1.00
C78    C     0.09111   0.62453   0.92767   0.00000  Uiso   1.00
O79    O     0.16704   0.66237   0.78382   0.00000  Uiso   1.00
C80    C     0.06895   0.73324   0.53277   0.00000  Uiso   1.00
C81    C     0.02281   0.70445   0.73278   0.00000  Uiso   1.00
O82    O     0.15503   0.79615   0.84609   0.00000  Uiso   1.00
C83    C     0.01312   0.83838   0.85255   0.00000  Uiso   1.00
O84    O     0.24514   0.11849   0.18180   0.00000  Uiso   1.00
C85    C     0.31594   0.14641   0.33177   0.00000  Uiso   1.00
C86    C     0.28040   0.28270   0.26367   0.00000  Uiso   1.00
O87    O     0.14181   0.09406   0.29454   0.00000  Uiso   1.00
O88    O     0.55651   0.10309   0.10519   0.00000  Uiso   1.00
C89    C     0.46423   0.18175   0.18585   0.00000  Uiso   1.00
C90    C     0.46860   0.17067   1.01750   0.00000  Uiso   1.00
C91    C     0.34318   0.08006   0.63160   0.00000  Uiso   1.00
O92    O     0.42150   0.03648   0.75584   0.00000  Uiso   1.00
C93    C     0.53214   0.18906   0.66244   0.00000  Uiso   1.00
O94    O     0.35655   0.44909   0.16621   0.00000  Uiso   1.00
O95    O     0.25901   0.47649   0.26425   0.00000  Uiso   1.00
C96    C     0.57144   0.50373   0.10480   0.00000  Uiso   1.00
C97    C     0.54432   0.56658   0.94588   0.00000  Uiso   1.00
C98    C     0.69353   0.69952   1.06058   0.00000  Uiso   1.00
O99    O     0.24863   0.35631   0.50344   0.00000  Uiso   1.00
C100   C     0.20634   0.44885   0.59234   0.00000  Uiso   1.00
C101   C     0.26916   0.63481   0.69105   0.00000  Uiso   1.00
O102   O     0.41335   0.52066   0.30788   0.00000  Uiso   1.00
C103   C     0.48723   0.41512   0.35940   0.00000  Uiso   1.00
C104   C     0.25381   0.21085   0.71050   0.00000  Uiso   1.00
O105   O     0.40949   0.20417   0.75246   0.00000  Uiso   1.00
C106   C     0.33876   0.28726   0.84866   0.00000  Uiso   1.00
O107   O     0.34879   0.43394   0.63327   0.00000  Uiso   1.00
O108   O     0.42953   0.38987   0.72684   0.00000  Uiso   1.00
O109   O     0.40795   0.61813   0.19799   0.00000  Uiso   1.00
O110   O     0.50468   0.62306   0.07721   0.00000  Uiso   1.00
C111   C     0.29395   0.75184   0.20180   0.00000  Uiso   1.00
O112   O     0.41854   0.94086   0.15480   0.00000  Uiso   1.00
C113   C     0.22975   0.87355   0.20922   0.00000  Uiso   1.00
O114   O     0.46871   0.75423   0.08729   0.00000  Uiso   1.00
O115   O     0.54616   0.93747   0.07771   0.00000  Uiso   1.00
O116   O     0.38026   0.55222   0.52770   0.00000  Uiso   1.00
O117   O     0.50400   0.57281   0.43082   0.00000  Uiso   1.00
C118   C     0.29938   0.76481   0.49316   0.00000  Uiso   1.00
C119   C     0.45056   0.97112   0.55018   0.00000  Uiso   1.00
C120   C     0.27667   0.83112   0.64409   0.00000  Uiso   1.00
C121   C     0.16768   0.91757   0.73673   0.00000  Uiso   1.00
C122   C     0.38166   0.94220   0.30579   0.00000  Uiso   1.00
C123   C     0.42158   0.77055   0.31292   0.00000  Uiso   1.00
O124   O     0.46045   0.69951   0.43059   0.00000  Uiso   1.00
C125   C     0.55495   0.89747   0.43018   0.00000  Uiso   1.00
C126   C     0.35688   0.61608   0.83860   0.00000  Uiso   1.00
O127   O     0.46406   0.57751   0.73606   0.00000  Uiso   1.00
O128   O     0.28420   0.77886   0.88981   0.00000  Uiso   1.00
O129   O     0.41336   0.82487   0.98320   0.00000  Uiso   1.00
O130   O     0.43753   0.94290   0.86831   0.00000  Uiso   1.00
O131   O     0.33064   0.92305   0.99075   0.00000  Uiso   1.00
O132   O     0.42198   0.80490   0.61164   0.00000  Uiso   1.00
O133   O     0.46529   0.74329   0.72042   0.00000  Uiso   1.00
O134   O     0.50237   0.92585   0.72620   0.00000  Uiso   1.00
C135   C     0.81735   0.11273   0.14732   0.00000  Uiso   1.00
O136   O     0.88238   0.02160   0.22861   0.00000  Uiso   1.00
C137   C     0.80039   0.94835   0.08172   0.00000  Uiso   1.00
O138   O     0.57908   0.02142   0.21725   0.00000  Uiso   1.00
C139   C     0.59412   0.13157   0.35700   0.00000  Uiso   1.00
O140   O     0.90147   0.04703   0.49351   0.00000  Uiso   1.00
O141   O     0.89303   0.14916   0.32200   0.00000  Uiso   1.00
O142   O     0.71715   0.07740   0.30818   0.00000  Uiso   1.00
O143   O     0.76926   0.02175   0.41295   0.00000  Uiso   1.00
C144   C     0.80663   0.20934   0.42457   0.00000  Uiso   1.00
O145   O     0.58051   0.08020   0.80502   0.00000  Uiso   1.00
C146   C     0.62781   0.09226   0.95712   0.00000  Uiso   1.00
C147   C     0.62927   0.24806   0.88443   0.00000  Uiso   1.00
C148   C     0.64183   0.30055   1.09614   0.00000  Uiso   1.00
O149   O     0.91342   0.18604   0.56547   0.00000  Uiso   1.00
C150   C     0.75657   0.08565   0.65412   0.00000  Uiso   1.00
C151   C     0.94024   0.26905   0.71246   0.00000  Uiso   1.00
C152   C     0.72499   0.22808   0.23495   0.00000  Uiso   1.00
C153   C     0.85555   0.28994   0.03947   0.00000  Uiso   1.00
C154   C     0.98447   0.22893   0.00126   0.00000  Uiso   1.00
C155   C     1.05222   0.43777   0.00244   0.00000  Uiso   1.00
O156   O     1.00187   0.34005   0.14050   0.00000  Uiso   1.00
C157   C     0.85604   0.47378  -0.00638   0.00000  Uiso   1.00
C158   C     0.78598   0.56088   0.11208   0.00000  Uiso   1.00
C159   C     0.60146   0.60510   0.29808   0.00000  Uiso   1.00
C160   C     0.51475   0.36100   0.54780   0.00000  Uiso   1.00
C161   C     0.66964   0.50172   0.65745   0.00000  Uiso   1.00
C162   C     0.66242   0.57808   0.51460   0.00000  Uiso   1.00
O163   O     0.51947   0.51506   0.62434   0.00000  Uiso   1.00
O164   O     0.97238   0.43192   0.24005   0.00000  Uiso   1.00
C165   C     0.90470   0.67136  -0.01697   0.00000  Uiso   1.00
C166   C     0.84018   0.47815   0.28214   0.00000  Uiso   1.00
C167   C     0.96363   0.47243   0.39326   0.00000  Uiso   1.00
C168   C     1.06001   0.63380   0.28043   0.00000  Uiso   1.00
C169   C     0.76608   0.20896   0.84268   0.00000  Uiso   1.00
C170   C     0.70342   0.30104   0.54150   0.00000  Uiso   1.00
O171   O     0.83367   0.27794   0.59450   0.00000  Uiso   1.00
C172   C     0.87337   0.47522   0.60290   0.00000  Uiso   1.00
C173   C     0.74400   0.31453   0.70220   0.00000  Uiso   1.00
O174   O     0.73807   0.52159  -0.03980   0.00000  Uiso   1.00
C175   C     0.60402   0.41867  -0.14906   0.00000  Uiso   1.00
C176   C     0.75484   0.64542  -0.15434   0.00000  Uiso   1.00
C177   C     0.80761   0.50624  -0.18354   0.00000  Uiso   1.00
C178   C     0.93162   0.85990   0.11489   0.00000  Uiso   1.00
O179   O     0.58478   0.75930   0.18294   0.00000  Uiso   1.00
O180   O     0.70764   0.92824   0.22175   0.00000  Uiso   1.00
O181   O     0.59985   0.80671   0.33097   0.00000  Uiso   1.00
O182   O     0.55575   0.71023   0.54353   0.00000  Uiso   1.00
C183   C     0.68891   0.77230   0.64821   0.00000  Uiso   1.00
O184   O     0.72044   0.88239   0.51082   0.00000  Uiso   1.00
O185   O     0.59206   0.86062   0.62752   0.00000  Uiso   1.00
O186   O     0.92393   0.89220   0.27133   0.00000  Uiso   1.00
O187   O     0.73589   0.80673   0.26365   0.00000  Uiso   1.00
C188   C     0.81338   0.74072   0.36465   0.00000  Uiso   1.00
O189   O     0.82663   0.91652   0.38570   0.00000  Uiso   1.00
O190   O     0.54540   0.72957   0.83172   0.00000  Uiso   1.00
C191   C     0.71500   0.83882   0.89448   0.00000  Uiso   1.00
C192   C     0.64902   0.93107   0.82771   0.00000  Uiso   1.00
O193   O     0.56764   0.83280   0.96570   0.00000  Uiso   1.00
H194   H     0.19117   0.11177   0.02808   0.00000  Uiso   1.00
H195   H     0.09544   0.09185   0.08619   0.00000  Uiso   1.00
H196   H     0.08502  -0.00290   0.02339   0.00000  Uiso   1.00
H197   H     0.17543   0.07894   0.55361   0.00000  Uiso   1.00
H198   H     0.22571   0.00973   0.51551   0.00000  Uiso   1.00
H199   H     0.13157  -0.05107   0.57116   0.00000  Uiso   1.00
H200   H     0.22330   0.94538   0.39364   0.00000  Uiso   1.00
H201   H     0.14341   0.94017   0.32161   0.00000  Uiso   1.00
H202   H     0.11464   0.83031   0.36873   0.00000  Uiso   1.00
H203   H    -0.03790   0.06452   0.65384   0.00000  Uiso   1.00
H204   H     0.05534   0.18929   0.65581   0.00000  Uiso   1.00
H205   H     0.05817   0.09602   0.60062   0.00000  Uiso   1.00
H206   H     0.02308   0.20847   0.17551   0.00000  Uiso   1.00
H207   H     0.06864   0.14410   0.20139   0.00000  Uiso   1.00
H208   H     0.09590   0.25401   0.25456   0.00000  Uiso   1.00
H209   H     0.15016   0.34643   0.12972   0.00000  Uiso   1.00
H210   H     0.18228   0.25942   0.12867   0.00000  Uiso   1.00
H211   H     0.16452   0.28561   0.03913   0.00000  Uiso   1.00
H212   H     0.30203   0.27389  -0.00550   0.00000  Uiso   1.00
H213   H     0.34270   0.27573   0.08881   0.00000  Uiso   1.00
H214   H     0.42051   0.36449   0.02339   0.00000  Uiso   1.00
H215   H     0.25365   0.44735  -0.02250   0.00000  Uiso   1.00
H216   H     0.37741   0.52536  -0.01217   0.00000  Uiso   1.00
H217   H     0.30044   0.54210   0.04372   0.00000  Uiso   1.00
H218   H     0.13905   0.56213   0.13587   0.00000  Uiso   1.00
H219   H     0.19984   0.50386   0.13967   0.00000  Uiso   1.00
H220   H     0.18953   0.56555   0.21964   0.00000  Uiso   1.00
H221   H     0.21698   0.59489   0.36229   0.00000  Uiso   1.00
H222   H     0.24585   0.54104   0.43194   0.00000  Uiso   1.00
H223   H     0.13348   0.51005   0.42995   0.00000  Uiso   1.00
H224   H     0.08257   0.57172   0.63936   0.00000  Uiso   1.00
H225   H     0.00289   0.48071   0.70104   0.00000  Uiso   1.00
H226   H     0.07182   0.45609   0.63906   0.00000  Uiso   1.00
H227   H     0.17144   0.50607   0.85976   0.00000  Uiso   1.00
H228   H     0.15253   0.42451   0.78679   0.00000  Uiso   1.00
H229   H     0.05411   0.42827   0.81303   0.00000  Uiso   1.00
H230   H    -0.09750   0.71364   0.24671   0.00000  Uiso   1.00
H231   H     0.00767   0.76817   0.28008   0.00000  Uiso   1.00
H232   H    -0.01263   0.72881   0.17979   0.00000  Uiso   1.00
H233   H     0.10162   0.82375   0.06666   0.00000  Uiso   1.00
H234   H     0.15365   0.76411   0.03183   0.00000  Uiso   1.00
H235   H     0.09249   0.79989  -0.03185   0.00000  Uiso   1.00
H236   H     0.18567   0.99983   0.92367   0.00000  Uiso   1.00
H237   H     0.26845   0.97681   0.87885   0.00000  Uiso   1.00
H238   H     0.29919   1.07976   0.94047   0.00000  Uiso   1.00
H239   H     0.95312   0.80605   0.63348   0.00000  Uiso   1.00
H240   H     0.86105   0.67741   0.62495   0.00000  Uiso   1.00
H241   H     0.86551   0.77031   0.57216   0.00000  Uiso   1.00
H242   H     0.89397   0.57649   0.46577   0.00000  Uiso   1.00
H243   H     0.91944   0.65050   0.38711   0.00000  Uiso   1.00
H244   H     0.82943   0.62700   0.45155   0.00000  Uiso   1.00
H245   H     0.04396   0.63763   0.95774   0.00000  Uiso   1.00
H246   H     0.13310   0.61519   0.96476   0.00000  Uiso   1.00
H247   H     0.04747   0.56166   0.88381   0.00000  Uiso   1.00
H248   H     0.09242   0.76851   0.58674   0.00000  Uiso   1.00
H249   H     0.12658   0.76637   0.49031   0.00000  Uiso   1.00
H250   H     0.04548   0.65807   0.54163   0.00000  Uiso   1.00
H251   H    -0.01706   0.71648   0.69565   0.00000  Uiso   1.00
H252   H    -0.01228   0.63700   0.76337   0.00000  Uiso   1.00
H253   H     0.07066   0.70149   0.68869   0.00000  Uiso   1.00
H254   H     0.03750   0.86823   0.91150   0.00000  Uiso   1.00
H255   H    -0.05794   0.76448   0.85364   0.00000  Uiso   1.00
H256   H    -0.00146   0.88610   0.82652   0.00000  Uiso   1.00
H257   H     0.38832   0.20960   0.32329   0.00000  Uiso   1.00
H258   H     0.32398   0.08845   0.30885   0.00000  Uiso   1.00
H259   H     0.30088   0.14799   0.39455   0.00000  Uiso   1.00
H260   H     0.34039   0.31467   0.22499   0.00000  Uiso   1.00
H261   H     0.29686   0.32145   0.31951   0.00000  Uiso   1.00
H262   H     0.23072   0.29112   0.23698   0.00000  Uiso   1.00
H263   H     0.39284   0.11288   0.18501   0.00000  Uiso   1.00
H264   H     0.45916   0.24516   0.19540   0.00000  Uiso   1.00
H265   H     0.49678   0.17957   0.23467   0.00000  Uiso   1.00
H266   H     0.47642   0.12625   0.97753   0.00000  Uiso   1.00
H267   H     0.49049   0.24230   0.98735   0.00000  Uiso   1.00
H268   H     0.39933   0.13724   1.03225   0.00000  Uiso   1.00
H269   H     0.34621   0.02848   0.59374   0.00000  Uiso   1.00
H270   H     0.36244   0.13945   0.59288   0.00000  Uiso   1.00
H271   H     0.27385   0.05717   0.65467   0.00000  Uiso   1.00
H272   H     0.56763   0.15271   0.66604   0.00000  Uiso   1.00
H273   H     0.56302   0.26174   0.68766   0.00000  Uiso   1.00
H274   H     0.52194   0.19630   0.60245   0.00000  Uiso   1.00
H275   H     0.58596   0.45886   0.06507   0.00000  Uiso   1.00
H276   H     0.50209   0.45934   0.12968   0.00000  Uiso   1.00
H277   H     0.62576   0.53862   0.14887   0.00000  Uiso   1.00
H278   H     0.53941   0.62576   0.92684   0.00000  Uiso   1.00
H279   H     0.48538   0.48986   0.94321   0.00000  Uiso   1.00
H280   H     0.60128   0.57066   0.91639   0.00000  Uiso   1.00
H281   H     0.74221   0.68854   1.03487   0.00000  Uiso   1.00
H282   H     0.69890   0.70889   1.12191   0.00000  Uiso   1.00
H283   H     0.68526   0.75215   1.03794   0.00000  Uiso   1.00
H284   H     0.14184   0.38918   0.56767   0.00000  Uiso   1.00
H285   H     0.21202   0.51381   0.57591   0.00000  Uiso   1.00
H286   H     0.20040   0.43943   0.65478   0.00000  Uiso   1.00
H287   H     0.25549   0.63881   0.63181   0.00000  Uiso   1.00
H288   H     0.29817   0.59272   0.69327   0.00000  Uiso   1.00
H289   H     0.31167   0.71350   0.71406   0.00000  Uiso   1.00
H290   H     0.47413   0.37763   0.30576   0.00000  Uiso   1.00
H291   H     0.43354   0.36675   0.40033   0.00000  Uiso   1.00
H292   H     0.55546   0.43810   0.38559   0.00000  Uiso   1.00
H293   H     0.26817   0.19572   0.65168   0.00000  Uiso   1.00
H294   H     0.22833   0.26116   0.71779   0.00000  Uiso   1.00
H295   H     0.20129   0.14319   0.74375   0.00000  Uiso   1.00
H296   H     0.31943   0.33866   0.85459   0.00000  Uiso   1.00
H297   H     0.39931   0.31500   0.88107   0.00000  Uiso   1.00
H298   H     0.28881   0.21710   0.86933   0.00000  Uiso   1.00
H299   H     0.35584   0.75284   0.18370   0.00000  Uiso   1.00
H300   H     0.24704   0.72201   0.15686   0.00000  Uiso   1.00
H301   H     0.26629   0.71974   0.26011   0.00000  Uiso   1.00
H302   H     0.17940   0.82088   0.25141   0.00000  Uiso   1.00
H303   H     0.20143   0.83763   0.15946   0.00000  Uiso   1.00
H304   H     0.23186   0.94099   0.22056   0.00000  Uiso   1.00
H305   H     0.28709   0.79632   0.44805   0.00000  Uiso   1.00
H306   H     0.23116   0.70264   0.51466   0.00000  Uiso   1.00
H307   H     0.33882   0.73313   0.47072   0.00000  Uiso   1.00
H308   H     0.43113   1.00062   0.50536   0.00000  Uiso   1.00
H309   H     0.51920   0.98555   0.53425   0.00000  Uiso   1.00
H310   H     0.46672   1.02170   0.60103   0.00000  Uiso   1.00
H311   H     0.21500   0.75885   0.63388   0.00000  Uiso   1.00
H312   H     0.25480   0.87927   0.62907   0.00000  Uiso   1.00
H313   H     0.30155   0.84079   0.70128   0.00000  Uiso   1.00
H314   H     0.16500   0.97862   0.75965   0.00000  Uiso   1.00
H315   H     0.14612   0.90095   0.67844   0.00000  Uiso   1.00
H316   H     0.23451   0.93007   0.74049   0.00000  Uiso   1.00
H317   H     0.40248   1.01626   0.30145   0.00000  Uiso   1.00
H318   H     0.44604   0.94595   0.31345   0.00000  Uiso   1.00
H319   H     0.33032   0.90017   0.35206   0.00000  Uiso   1.00
H320   H     0.37252   0.69230   0.30652   0.00000  Uiso   1.00
H321   H     0.45309   0.80337   0.26217   0.00000  Uiso   1.00
H322   H     0.38992   0.79717   0.34944   0.00000  Uiso   1.00
H323   H     0.61523   0.95962   0.40658   0.00000  Uiso   1.00
H324   H     0.55671   0.88073   0.48836   0.00000  Uiso   1.00
H325   H     0.50235   0.91388   0.42393   0.00000  Uiso   1.00
H326   H     0.31375   0.53427   0.83376   0.00000  Uiso   1.00
H327   H     0.31635   0.64627   0.82733   0.00000  Uiso   1.00
H328   H     0.38049   0.64427   0.89836   0.00000  Uiso   1.00
H329   H     0.87367   0.15118   0.10714   0.00000  Uiso   1.00
H330   H     0.84298   0.16357   0.19880   0.00000  Uiso   1.00
H331   H     0.75285   0.09383   0.12427   0.00000  Uiso   1.00
H332   H     0.79829   0.88301   0.08415   0.00000  Uiso   1.00
H333   H     0.85648   0.99495   0.04242   0.00000  Uiso   1.00
H334   H     0.73350   0.92736   0.05687   0.00000  Uiso   1.00
H335   H     0.64631   0.19214   0.38587   0.00000  Uiso   1.00
H336   H     0.55899   0.06833   0.39746   0.00000  Uiso   1.00
H337   H     0.55498   0.15762   0.33767   0.00000  Uiso   1.00
H338   H     0.82356   0.27129   0.39050   0.00000  Uiso   1.00
H339   H     0.85990   0.22768   0.46330   0.00000  Uiso   1.00
H340   H     0.74963   0.18986   0.45864   0.00000  Uiso   1.00
H341   H     0.55467   0.04577   0.96638   0.00000  Uiso   1.00
H342   H     0.66221   0.14188   1.00590   0.00000  Uiso   1.00
H343   H     0.65395   0.04779   0.94698   0.00000  Uiso   1.00
H344   H     0.66090   0.29405   0.83396   0.00000  Uiso   1.00
H345   H     0.66178   0.28764   0.93542   0.00000  Uiso   1.00
H346   H     0.55326   0.20858   0.88056   0.00000  Uiso   1.00
H347   H     0.63969   0.35474   1.06795   0.00000  Uiso   1.00
H348   H     0.69601   0.28698   1.07814   0.00000  Uiso   1.00
H349   H     0.65800   0.32935   1.15599   0.00000  Uiso   1.00
H350   H     0.77977   0.05378   0.69755   0.00000  Uiso   1.00
H351   H     0.72499   0.03941   0.60321   0.00000  Uiso   1.00
H352   H     0.70266   0.09293   0.68231   0.00000  Uiso   1.00
H353   H     1.01286   0.31761   0.69468   0.00000  Uiso   1.00
H354   H     0.93766   0.21348   0.75103   0.00000  Uiso   1.00
H355   H     0.92369   0.31618   0.75069   0.00000  Uiso   1.00
H356   H     0.73914   0.22201   0.17475   0.00000  Uiso   1.00
H357   H     0.78551   0.27348   0.26749   0.00000  Uiso   1.00
H358   H     0.68699   0.26434   0.24188   0.00000  Uiso   1.00
H359   H     0.84130   0.33111   0.08202   0.00000  Uiso   1.00
H360   H     0.80553   0.20767   0.04582   0.00000  Uiso   1.00
H361   H     0.85769   0.31563  -0.01702   0.00000  Uiso   1.00
H362   H     0.91643   0.16774  -0.01137   0.00000  Uiso   1.00
H363   H     1.00876   0.19096   0.03633   0.00000  Uiso   1.00
H364   H     1.02722   0.25231  -0.05245   0.00000  Uiso   1.00
H365   H     1.12452   0.46127  -0.00238   0.00000  Uiso   1.00
H366   H     1.05166   0.49669   0.03672   0.00000  Uiso   1.00
H367   H     1.02032   0.43379  -0.04987   0.00000  Uiso   1.00
H368   H     0.89089   0.49075  -0.06483   0.00000  Uiso   1.00
H369   H     0.79481   0.39824  -0.01119   0.00000  Uiso   1.00
H370   H     0.90397   0.48215   0.03574   0.00000  Uiso   1.00
H371   H     0.77708   0.62242   0.12140   0.00000  Uiso   1.00
H372   H     0.84646   0.57522   0.14348   0.00000  Uiso   1.00
H373   H     0.72793   0.49114   0.12968   0.00000  Uiso   1.00
H374   H     0.58643   0.62602   0.24689   0.00000  Uiso   1.00
H375   H     0.64020   0.57339   0.27599   0.00000  Uiso   1.00
H376   H     0.63721   0.66654   0.33978   0.00000  Uiso   1.00
H377   H     0.48926   0.31514   0.59768   0.00000  Uiso   1.00
H378   H     0.54981   0.33790   0.51198   0.00000  Uiso   1.00
H379   H     0.44980   0.34375   0.52538   0.00000  Uiso   1.00
H380   H     0.63076   0.43775   0.69728   0.00000  Uiso   1.00
H381   H     0.69243   0.56257   0.69640   0.00000  Uiso   1.00
H382   H     0.73521   0.51158   0.63075   0.00000  Uiso   1.00
H383   H     0.62804   0.61005   0.49308   0.00000  Uiso   1.00
H384   H     0.67803   0.53700   0.46942   0.00000  Uiso   1.00
H385   H     0.72477   0.64000   0.53755   0.00000  Uiso   1.00
H386   H     0.95683   0.70380   0.02557   0.00000  Uiso   1.00
H387   H     0.87936   0.71662  -0.02008   0.00000  Uiso   1.00
H388   H     0.93683   0.66539  -0.06716   0.00000  Uiso   1.00
H389   H     0.82820   0.46164   0.22314   0.00000  Uiso   1.00
H390   H     0.84009   0.54646   0.28757   0.00000  Uiso   1.00
H391   H     0.78771   0.42041   0.31882   0.00000  Uiso   1.00
H392   H     1.02105   0.53686   0.41913   0.00000  Uiso   1.00
H393   H     0.96818   0.41129   0.39188   0.00000  Uiso   1.00
H394   H     0.89879   0.45395   0.41995   0.00000  Uiso   1.00
H395   H     1.12416   0.64867   0.29882   0.00000  Uiso   1.00
H396   H     1.05277   0.68221   0.31743   0.00000  Uiso   1.00
H397   H     1.06662   0.65614   0.21872   0.00000  Uiso   1.00
H398   H     0.80476   0.28682   0.83676   0.00000  Uiso   1.00
H399   H     0.78027   0.18159   0.79158   0.00000  Uiso   1.00
H400   H     0.80749   0.20204   0.88896   0.00000  Uiso   1.00
H401   H     0.65804   0.22365   0.53752   0.00000  Uiso   1.00
H402   H     0.72932   0.32453   0.48181   0.00000  Uiso   1.00
H403   H     0.66843   0.33935   0.55590   0.00000  Uiso   1.00
H404   H     0.93032   0.48986   0.56677   0.00000  Uiso   1.00
H405   H     0.90092   0.50639   0.65892   0.00000  Uiso   1.00
H406   H     0.84299   0.50427   0.57991   0.00000  Uiso   1.00
H407   H     0.70142   0.23409   0.71339   0.00000  Uiso   1.00
H408   H     0.70551   0.34949   0.71493   0.00000  Uiso   1.00
H409   H     0.80390   0.35355   0.73587   0.00000  Uiso   1.00
H410   H     0.59983   0.36526  -0.19251   0.00000  Uiso   1.00
H411   H     0.57716   0.45566  -0.17499   0.00000  Uiso   1.00
H412   H     0.56743   0.37398  -0.10203   0.00000  Uiso   1.00
H413   H     0.78275   0.69149  -0.10362   0.00000  Uiso   1.00
H414   H     0.69815   0.63924  -0.17823   0.00000  Uiso   1.00
H415   H     0.80417   0.66556  -0.19934   0.00000  Uiso   1.00
H416   H     0.87478   0.56533  -0.16743   0.00000  Uiso   1.00
H417   H     0.79954   0.49959  -0.24406   0.00000  Uiso   1.00
H418   H     0.79640   0.43924  -0.16805   0.00000  Uiso   1.00
H419   H     0.97041   0.84968   0.06967   0.00000  Uiso   1.00
H420   H     0.94785   0.93431   0.10599   0.00000  Uiso   1.00
H421   H     0.86334   0.80623   0.11658   0.00000  Uiso   1.00
H422   H     0.71664   0.82210   0.69932   0.00000  Uiso   1.00
H423   H     0.73591   0.76264   0.61824   0.00000  Uiso   1.00
H424   H     0.63125   0.70434   0.67153   0.00000  Uiso   1.00
H425   H     0.88742   0.76927   0.37187   0.00000  Uiso   1.00
H426   H     0.78442   0.67417   0.33465   0.00000  Uiso   1.00
H427   H     0.78023   0.73385   0.42321   0.00000  Uiso   1.00
H428   H     0.69643   0.76868   0.91545   0.00000  Uiso   1.00
H429   H     0.76562   0.89660   0.93228   0.00000  Uiso   1.00
H430   H     0.74922   0.84593   0.83671   0.00000  Uiso   1.00
H431   H     0.59063   0.93962   0.83438   0.00000  Uiso   1.00
H432   H     0.65837   0.92451   0.76216   0.00000  Uiso   1.00
H433   H     0.70906   0.99748   0.85061   0.00000  Uiso   1.00
loop_
_geom_bond_atom_site_label_1
_geom_bond_atom_site_label_2
_geom_bond_distance
_geom_bond_site_symmetry_2
_ccdc_geom_bond_type
Si1    C52     1.863   .     S
Si1    O84     1.590   .     S
Si1    O71     1.654   1_545 S
Si1    O73     1.613   1_545 S
Si2    O56     1.565   .     S
Si2    C58     1.777   .     S
Si2    O136    1.596   1_455 S
Si2    O141    1.605   1_455 S
Si3    C53     1.851   .     S
Si3    O57     1.527   .     S
Si3    C54     1.894   1_545 S
Si3    O75     1.611   1_545 S
Si4    C55     1.880   .     S
Si4    O63     1.617   .     S
Si4    O140    1.598   1_455 S
Si4    O149    1.566   1_455 S
Si5    O56     1.586   .     S
Si5    O57     1.588   .     S
Si5    O64     1.617   .     S
Si5    O87     1.580   .     S
Si6    C59     1.821   .     S
Si6    C60     1.892   .     S
Si6    C61     1.941   .     S
Si6    O94     1.630   .     S
Si7    C62     1.823   .     S
Si7    O65     1.560   .     S
Si7    O156    1.595   1_455 S
Si7    O164    1.605   1_455 S
Si8    O63     1.636   .     S
Si8    O64     1.618   .     S
Si8    O66     1.629   .     S
Si8    O99     1.712   .     S
Si9    O65     1.633   .     S
Si9    O66     1.637   .     S
Si9    C67     1.835   .     S
Si9    O95     1.618   .     S
Si10   C68     1.829   .     S
Si10   C69     1.879   .     S
Si10   O79     1.593   .     S
Si10   C101    1.817   .     S
Si11   C70     1.869   .     S
Si11   O71     1.605   .     S
Si11   C178    1.805   1_455 S
Si11   O186    1.653   1_455 S
Si12   C72     1.855   .     S
Si12   O73     1.656   .     S
Si12   C74     1.844   1_554 S
Si12   O131    1.636   1_554 S
Si13   O75     1.550   .     S
Si13   C80     1.888   .     S
Si13   C76     1.828   1_455 S
Si13   C77     1.866   1_455 S
Si14   C78     1.886   .     S
Si14   O79     1.618   .     S
Si14   O82     1.582   .     S
Si14   O128    1.633   .     S
Si15   C81     1.909   .     S
Si15   O82     1.598   .     S
Si15   C83     1.873   .     S
Si15   C121    1.841   .     S
Si16   O88     1.587   .     S
Si16   O138    1.632   .     S
Si16   O112    1.630   1_545 S
Si16   O115    1.636   1_545 S
Si17   O84     1.572   .     S
Si17   C85     1.897   .     S
Si17   C86     1.816   .     S
Si17   O87     1.564   .     S
Si18   O88     1.610   .     S
Si18   C89     1.861   .     S
Si18   C90     1.832   1_554 S
Si18   C148    1.873   1_554 S
Si19   O92     1.710   .     S
Si19   O145    1.598   .     S
Si19   O130    1.658   1_545 S
Si19   O134    1.641   1_545 S
Si20   C91     1.877   .     S
Si20   O92     1.647   .     S
Si20   C93     1.805   .     S
Si20   O105    1.644   .     S
Si21   O94     1.600   .     S
Si21   O95     1.572   .     S
Si21   O102    1.630   .     S
Si21   O109    1.577   .     S
Si22   C96     1.884   .     S
Si22   O110    1.592   .     S
Si22   C97     1.826   1_554 S
Si22   C98     1.886   1_554 S
Si23   O99     1.663   .     S
Si23   C100    1.748   .     S
Si23   O107    1.648   .     S
Si23   O116    1.598   .     S
Si24   O102    1.624   .     S
Si24   C103    1.767   .     S
Si24   O117    1.590   .     S
Si24   C159    1.822   .     S
Si25   C104    1.846   .     S
Si25   O105    1.691   .     S
Si25   C106    1.812   .     S
Si25   O108    1.674   .     S
Si26   O107    1.624   .     S
Si26   O108    1.626   .     S
Si26   O127    1.677   .     S
Si26   O163    1.583   .     S
Si27   O109    1.682   .     S
Si27   O110    1.609   .     S
Si27   O114    1.643   .     S
Si27   O179    1.613   .     S
Si28   C111    1.846   .     S
Si28   O112    1.569   .     S
Si28   C113    1.834   .     S
Si28   C122    1.868   .     S
Si29   O114    1.630   .     S
Si29   O115    1.633   .     S
Si29   O129    1.651   1_554 S
Si29   O193    1.601   1_554 S
Si30   O116    1.619   .     S
Si30   O117    1.615   .     S
Si30   O124    1.655   .     S
Si30   O182    1.658   .     S
Si31   C118    1.863   .     S
Si31   C119    1.876   .     S
Si31   C120    1.885   .     S
Si31   O132    1.598   .     S
Si32   C123    1.811   .     S
Si32   O124    1.631   .     S
Si32   C125    1.826   .     S
Si32   O181    1.575   .     S
Si33   C126    1.882   .     S
Si33   O127    1.652   .     S
Si33   O133    1.597   .     S
Si33   O190    1.617   .     S
Si34   O128    1.606   .     S
Si34   O129    1.664   .     S
Si34   O130    1.662   .     S
Si34   O131    1.643   .     S
Si35   O132    1.594   .     S
Si35   O133    1.602   .     S
Si35   O134    1.669   .     S
Si35   O185    1.674   .     S
Si36   C135    1.823   .     S
Si36   O136    1.614   .     S
Si36   C137    1.861   1_545 S
Si36   O180    1.600   1_545 S
Si37   O138    1.631   .     S
Si37   C139    1.872   .     S
Si37   O142    1.586   .     S
Si37   C152    1.923   .     S
Si38   O140    1.626   .     S
Si38   O143    1.593   .     S
Si38   O184    1.700   1_545 S
Si38   O189    1.604   1_545 S
Si39   O141    1.601   .     S
Si39   O142    1.598   .     S
Si39   O143    1.599   .     S
Si39   C144    1.804   .     S
Si40   O145    1.601   .     S
Si40   C146    1.802   .     S
Si40   C147    1.769   .     S
Si40   C169    1.847   .     S
Si41   O149    1.596   .     S
Si41   C150    1.912   .     S
Si41   C151    1.916   .     S
Si41   O171    1.614   .     S
Si42   C153    1.905   .     S
Si42   C154    1.860   .     S
Si42   C155    1.870   .     S
Si42   O156    1.596   .     S
Si43   C157    1.779   .     S
Si43   C158    1.843   .     S
Si43   C165    1.795   .     S
Si43   O174    1.563   .     S
Si44   C160    1.913   .     S
Si44   C161    1.884   .     S
Si44   C162    1.851   .     S
Si44   O163    1.579   .     S
Si45   O164    1.568   .     S
Si45   C166    1.929   .     S
Si45   C167    1.882   .     S
Si45   C168    1.939   .     S
Si46   C170    1.805   .     S
Si46   O171    1.579   .     S
Si46   C172    1.865   .     S
Si46   C173    1.814   .     S
Si47   O174    1.594   .     S
Si47   C175    1.887   .     S
Si47   C176    1.887   .     S
Si47   C177    1.879   .     S
Si48   O179    1.641   .     S
Si48   O180    1.576   .     S
Si48   O181    1.626   .     S
Si48   O187    1.617   .     S
Si49   O182    1.646   .     S
Si49   C183    1.937   .     S
Si49   O184    1.711   .     S
Si49   O185    1.613   .     S
Si50   O186    1.658   .     S
Si50   O187    1.665   .     S
Si50   C188    1.864   .     S
Si50   O189    1.651   .     S
Si51   O190    1.613   .     S
Si51   C191    1.817   .     S
Si51   C192    1.794   .     S
Si51   O193    1.628   .     S
C52    H194    1.083   .     S
C52    H195    1.120   .     S
C52    H196    1.101   .     S
C53    H197    1.107   .     S
C53    H198    1.106   .     S
C53    H199    1.173   .     S
C54    H200    1.179   .     S
C54    H201    1.092   .     S
C54    H202    1.111   .     S
C54    Si3     1.894   1_565 S
C55    H203    1.089   .     S
C55    H204    1.093   .     S
C55    H205    1.093   .     S
C58    H206    1.092   .     S
C58    H207    1.032   .     S
C58    H208    1.142   .     S
C59    H209    1.164   .     S
C59    H210    1.087   .     S
C59    H211    1.118   .     S
C60    H212    1.149   .     S
C60    H213    1.095   .     S
C60    H214    1.124   .     S
C61    H215    1.087   .     S
C61    H216    1.075   .     S
C61    H217    1.124   .     S
C62    H218    1.115   .     S
C62    H219    1.124   .     S
C62    H220    1.044   .     S
C67    H221    1.129   .     S
C67    H222    1.105   .     S
C67    H223    1.141   .     S
C68    H224    1.104   .     S
C68    H225    1.056   .     S
C68    H226    1.140   .     S
C69    H227    1.127   .     S
C69    H228    1.110   .     S
C69    H229    1.116   .     S
C70    H230    1.088   .     S
C70    H231    1.150   .     S
C70    H232    1.056   .     S
O71    Si1     1.654   1_565 S
C72    H233    1.092   .     S
C72    H234    1.117   .     S
C72    H235    1.122   .     S
O73    Si1     1.613   1_565 S
C74    H236    1.088   .     S
C74    H237    1.123   .     S
C74    H238    1.060   .     S
C74    Si12    1.844   1_556 S
O75    Si3     1.611   1_565 S
C76    H239    1.078   .     S
C76    H240    1.119   .     S
C76    H241    1.098   .     S
C76    Si13    1.828   1_655 S
C77    H242    1.100   .     S
C77    H243    1.114   .     S
C77    H244    1.094   .     S
C77    Si13    1.866   1_655 S
C78    H245    1.080   .     S
C78    H246    1.098   .     S
C78    H247    1.173   .     S
C80    H248    1.073   .     S
C80    H249    1.121   .     S
C80    H250    1.094   .     S
C81    H251    1.094   .     S
C81    H252    1.096   .     S
C81    H253    1.141   .     S
C83    H254    1.135   .     S
C83    H255    1.174   .     S
C83    H256    1.091   .     S
C85    H257    1.128   .     S
C85    H258    1.100   .     S
C85    H259    1.138   .     S
C86    H260    1.105   .     S
C86    H261    1.113   .     S
C86    H262    1.098   .     S
C89    H263    1.142   .     S
C89    H264    1.107   .     S
C89    H265    1.083   .     S
C90    H266    1.053   .     S
C90    H267    1.181   .     S
C90    H268    1.052   .     S
C90    Si18    1.832   1_556 S
C91    H269    1.081   .     S
C91    H270    1.117   .     S
C91    H271    1.124   .     S
C93    H272    1.090   .     S
C93    H273    1.091   .     S
C93    H274    1.119   .     S
C96    H275    1.118   .     S
C96    H276    1.105   .     S
C96    H277    1.136   .     S
C97    H278    1.106   .     S
C97    H279    1.114   .     S
C97    H280    1.079   .     S
C97    Si22    1.826   1_556 S
C98    H281    1.050   .     S
C98    H282    1.097   .     S
C98    H283    1.066   .     S
C98    Si22    1.886   1_556 S
C100   H284    1.109   .     S
C100   H285    1.082   .     S
C100   H286    1.125   .     S
C101   H287    1.110   .     S
C101   H288    1.074   .     S
C101   H289    1.151   .     S
C103   H290    1.073   .     S
C103   H291    1.108   .     S
C103   H292    1.162   .     S
C104   H293    1.112   .     S
C104   H294    1.145   .     S
C104   H295    1.157   .     S
C106   H296    1.078   .     S
C106   H297    1.088   .     S
C106   H298    1.072   .     S
C111   H299    1.114   .     S
C111   H300    1.071   .     S
C111   H301    1.151   .     S
O112   Si16    1.630   1_565 S
C113   H302    1.125   .     S
C113   H303    1.025   .     S
C113   H304    1.105   .     S
O115   Si16    1.636   1_565 S
C118   H305    1.078   .     S
C118   H306    1.134   .     S
C118   H307    1.127   .     S
C119   H308    1.122   .     S
C119   H309    1.121   .     S
C119   H310    1.132   .     S
C120   H311    1.100   .     S
C120   H312    1.112   .     S
C120   H313    1.101   .     S
C121   H314    1.094   .     S
C121   H315    1.093   .     S
C121   H316    1.086   .     S
C122   H317    1.077   .     S
C122   H318    1.120   .     S
C122   H319    1.129   .     S
C123   H320    1.095   .     S
C123   H321    1.045   .     S
C123   H322    1.063   .     S
C125   H323    1.078   .     S
C125   H324    1.096   .     S
C125   H325    1.116   .     S
C126   H326    1.132   .     S
C126   H327    1.108   .     S
C126   H328    1.142   .     S
O129   Si29    1.651   1_556 S
O130   Si19    1.658   1_565 S
O131   Si12    1.636   1_556 S
O134   Si19    1.641   1_565 S
C135   H329    1.088   .     S
C135   H330    1.137   .     S
C135   H331    1.099   .     S
O136   Si2     1.596   1_655 S
C137   H332    1.067   .     S
C137   H333    1.100   .     S
C137   H334    1.140   .     S
C137   Si36    1.861   1_565 S
C139   H335    1.045   .     S
C139   H336    1.152   .     S
C139   H337    1.076   .     S
O140   Si4     1.598   1_655 S
O141   Si2     1.605   1_655 S
C144   H338    1.108   .     S
C144   H339    1.089   .     S
C144   H340    1.041   .     S
C146   H341    1.087   .     S
C146   H342    1.107   .     S
C146   H343    1.068   .     S
C147   H344    1.122   .     S
C147   H345    1.076   .     S
C147   H346    1.127   .     S
C148   H347    1.075   .     S
C148   H348    1.125   .     S
C148   H349    1.128   .     S
C148   Si18    1.873   1_556 S
O149   Si4     1.566   1_655 S
C150   H350    1.171   .     S
C150   H351    1.107   .     S
C150   H352    1.114   .     S
C151   H353    1.113   .     S
C151   H354    1.162   .     S
C151   H355    1.153   .     S
C152   H356    1.100   .     S
C152   H357    1.084   .     S
C152   H358    1.121   .     S
C153   H359    1.101   .     S
C153   H360    1.154   .     S
C153   H361    1.107   .     S
C154   H362    1.087   .     S
C154   H363    1.161   .     S
C154   H364    1.130   .     S
C155   H365    1.110   .     S
C155   H366    1.126   .     S
C155   H367    1.096   .     S
O156   Si7     1.595   1_655 S
C157   H368    1.147   .     S
C157   H369    1.117   .     S
C157   H370    1.109   .     S
C158   H371    1.118   .     S
C158   H372    1.132   .     S
C158   H373    1.089   .     S
C159   H374    1.091   .     S
C159   H375    1.115   .     S
C159   H376    1.114   .     S
C160   H377    1.109   .     S
C160   H378    1.062   .     S
C160   H379    1.111   .     S
C161   H380    1.154   .     S
C161   H381    1.078   .     S
C161   H382    1.155   .     S
C162   H383    1.097   .     S
C162   H384    1.143   .     S
C162   H385    1.089   .     S
O164   Si7     1.605   1_655 S
C165   H386    1.093   .     S
C165   H387    1.071   .     S
C165   H388    1.062   .     S
C166   H389    1.074   .     S
C166   H390    1.133   .     S
C166   H391    1.109   .     S
C167   H392    1.086   .     S
C167   H393    1.059   .     S
C167   H394    1.096   .     S
C168   H395    1.084   .     S
C168   H396    1.067   .     S
C168   H397    1.161   .     S
C169   H398    1.086   .     S
C169   H399    1.073   .     S
C169   H400    1.184   .     S
C170   H401    1.074   .     S
C170   H402    1.137   .     S
C170   H403    1.118   .     S
C172   H404    1.078   .     S
C172   H405    1.103   .     S
C172   H406    1.011   .     S
C173   H407    1.137   .     S
C173   H408    1.120   .     S
C173   H409    1.081   .     S
C175   H410    1.115   .     S
C175   H411    1.093   .     S
C175   H412    1.074   .     S
C176   H413    1.094   .     S
C176   H414    1.060   .     S
C176   H415    1.071   .     S
C177   H416    1.082   .     S
C177   H417    1.088   .     S
C177   H418    1.067   .     S
C178   H419    1.095   .     S
C178   H420    1.122   .     S
C178   H421    1.030   .     S
C178   Si11    1.805   1_655 S
O180   Si36    1.600   1_565 S
C183   H422    1.125   .     S
C183   H423    1.043   .     S
C183   H424    1.105   .     S
O184   Si38    1.700   1_565 S
O186   Si11    1.653   1_655 S
C188   H425    1.131   .     S
C188   H426    1.050   .     S
C188   H427    1.148   .     S
O189   Si38    1.604   1_565 S
C191   H428    1.103   .     S
C191   H429    1.103   .     S
C191   H430    1.143   .     S
C192   H431    1.116   .     S
C192   H432    1.179   .     S
C192   H433    1.100   .     S
O193   Si29    1.601   1_556 S
