data_333-13-11-12-15-30-7
_audit_creation_date              2025-03-07
_audit_creation_method            'Materials Studio'
_symmetry_space_group_name_H-M    'P1'
_symmetry_Int_Tables_number       1
_symmetry_cell_setting            triclinic
loop_
_symmetry_equiv_pos_as_xyz
  x,y,z
_cell_length_a                    16.7949
_cell_length_b                    16.2304
_cell_length_c                    18.0860
_cell_angle_alpha                 93.6513
_cell_angle_beta                  98.5611
_cell_angle_gamma                 112.8068
loop_
_atom_site_label
_atom_site_type_symbol
_atom_site_fract_x
_atom_site_fract_y
_atom_site_fract_z
_atom_site_U_iso_or_equiv
_atom_site_adp_type
_atom_site_occupancy
Si1    Si    0.10507  -0.08249   0.09377   0.00000  Uiso   1.00
Si2    Si    0.16507  -0.01663   0.45518   0.00000  Uiso   1.00
Si3    Si    0.18926   0.16118   0.38406   0.00000  Uiso   1.00
Si4    Si    0.06086   0.21630   0.84046   0.00000  Uiso   1.00
Si5    Si    0.19105   0.35685   0.13538   0.00000  Uiso   1.00
Si6    Si    0.02835   0.49449   0.20490   0.00000  Uiso   1.00
Si7    Si    0.15102   0.32878   0.44961   0.00000  Uiso   1.00
Si8    Si    0.04289   0.53881   0.55693   0.00000  Uiso   1.00
Si9    Si    0.15125   0.48399   0.34480   0.00000  Uiso   1.00
Si10   Si    0.17686   0.35465   0.75317   0.00000  Uiso   1.00
Si11   Si   -0.00220   0.52147   0.83183   0.00000  Uiso   1.00
Si12   Si    0.17752   0.52207   0.68593   0.00000  Uiso   1.00
Si13   Si    0.18316   0.66479   0.17579   0.00000  Uiso   1.00
Si14   Si    0.01855   0.78601   0.20099   0.00000  Uiso   1.00
Si15   Si    0.17011   0.77849   0.05249   0.00000  Uiso   1.00
Si16   Si    0.15008   0.65531   0.44114   0.00000  Uiso   1.00
Si17   Si    0.05748   0.87320   0.56376   0.00000  Uiso   1.00
Si18   Si    0.15248   0.81316   0.34671   0.00000  Uiso   1.00
Si19   Si    0.15207   0.66997   0.78723   0.00000  Uiso   1.00
Si20   Si    0.12514   0.83383   0.72347   0.00000  Uiso   1.00
Si21   Si    0.41575  -0.05720   0.18393   0.00000  Uiso   1.00
Si22   Si    0.35387   0.15900   0.33899   0.00000  Uiso   1.00
Si23   Si    0.32953   0.10630   0.56533   0.00000  Uiso   1.00
Si24   Si    0.57334   0.06686   0.74010   0.00000  Uiso   1.00
Si25   Si    0.53125   0.16929   0.61630   0.00000  Uiso   1.00
Si26   Si    0.47375   0.24529  -0.01155   0.00000  Uiso   1.00
Si27   Si    0.30333   0.47896   0.28234   0.00000  Uiso   1.00
Si28   Si    0.52329   0.43516  -0.06595   0.00000  Uiso   1.00
Si29   Si    0.28618   0.47065   0.58010   0.00000  Uiso   1.00
Si30   Si    0.54206   0.34009   0.71543   0.00000  Uiso   1.00
Si31   Si    0.36527   0.46336   0.85325   0.00000  Uiso   1.00
Si32   Si    0.47098   0.47916   0.64787   0.00000  Uiso   1.00
Si33   Si    0.47104   0.58729   0.22785   0.00000  Uiso   1.00
Si34   Si    0.31687   0.80950   0.29050   0.00000  Uiso   1.00
Si35   Si    0.64913   0.86062   0.50013   0.00000  Uiso   1.00
Si36   Si    0.32477   0.77634   0.53954   0.00000  Uiso   1.00
Si37   Si    0.51011   0.88401   0.38546   0.00000  Uiso   1.00
Si38   Si    0.47751   0.61045   0.78134   0.00000  Uiso   1.00
Si39   Si    0.28633   0.77268   0.93808   0.00000  Uiso   1.00
Si40   Si    0.74941   0.06692   0.12746   0.00000  Uiso   1.00
Si41   Si    0.93269   0.23589  -0.06158   0.00000  Uiso   1.00
Si42   Si    0.69717   0.23755   0.55275   0.00000  Uiso   1.00
Si43   Si    0.92166   0.38148   0.04738   0.00000  Uiso   1.00
Si44   Si    0.86556   0.50575  -0.05891   0.00000  Uiso   1.00
Si45   Si    0.55711   0.52447   0.51028   0.00000  Uiso   1.00
Si46   Si    0.87250   0.45154   0.29048   0.00000  Uiso   1.00
Si47   Si    0.67911   0.47545   0.85328   0.00000  Uiso   1.00
Si48   Si    0.87601   0.64288   0.07813   0.00000  Uiso   1.00
Si49   Si    0.68314   0.89567   0.00878   0.00000  Uiso   1.00
Si50   Si    0.88197   0.85058   0.24548   0.00000  Uiso   1.00
Si51   Si    0.78107   0.64275   0.78330   0.00000  Uiso   1.00
C52    C     0.01655  -0.10152   0.01036   0.00000  Uiso   1.00
C53    C     0.12675   0.14337   0.28770   0.00000  Uiso   1.00
O54    O     0.14822   0.07182   0.42383   0.00000  Uiso   1.00
C55    C     0.13248   0.15589   0.88233   0.00000  Uiso   1.00
C56    C     0.97176   0.14872   0.75865   0.00000  Uiso   1.00
C57    C     0.08986   0.27989   0.16591   0.00000  Uiso   1.00
C58    C     0.25977   0.29860   0.10671   0.00000  Uiso   1.00
C59    C     0.16183   0.39963   0.04586   0.00000  Uiso   1.00
C60    C     0.04808   0.26301   0.48265   0.00000  Uiso   1.00
O61    O     0.18522   0.25352   0.41891   0.00000  Uiso   1.00
C62    C     0.96522   0.57364   0.60220   0.00000  Uiso   1.00
C63    C     0.96614   0.43927   0.49125   0.00000  Uiso   1.00
O64    O     0.08221   0.45422   0.26226   0.00000  Uiso   1.00
O65    O     0.13015   0.39236   0.39085   0.00000  Uiso   1.00
O66    O     0.12426   0.30441   0.81074   0.00000  Uiso   1.00
C67    C     0.16509   0.26733   0.67380   0.00000  Uiso   1.00
C68    C     0.07465   0.48156   0.89158   0.00000  Uiso   1.00
C69    C     0.95198   0.42807   0.74928   0.00000  Uiso   1.00
O70    O     0.10433   0.51388   0.61797   0.00000  Uiso   1.00
O71    O     0.14657   0.43190   0.72850   0.00000  Uiso   1.00
O72    O     0.09459   0.59774   0.20340   0.00000  Uiso   1.00
C73    C     0.22074   0.60596   0.11474   0.00000  Uiso   1.00
O74    O     0.06089   0.87476   0.16158   0.00000  Uiso   1.00
O75    O     0.17015   0.74058   0.13258   0.00000  Uiso   1.00
O76    O     0.16562   0.87315   0.07147   0.00000  Uiso   1.00
C77    C     0.07625   0.71104   0.98200   0.00000  Uiso   1.00
O78    O     0.09563   0.61803   0.51022   0.00000  Uiso   1.00
O79    O     0.13388   0.56445   0.38476   0.00000  Uiso   1.00
O80    O     0.11215   0.95184   0.52273   0.00000  Uiso   1.00
C81    C     0.98488   0.91871   0.60478   0.00000  Uiso   1.00
C82    C     0.99027   0.77070   0.49815   0.00000  Uiso   1.00
O83    O     0.08941   0.77668   0.26316   0.00000  Uiso   1.00
O84    O     0.12140   0.72590   0.39186   0.00000  Uiso   1.00
O85    O     0.13955   0.89983   0.38855   0.00000  Uiso   1.00
O86    O     0.05537   0.61400   0.79968   0.00000  Uiso   1.00
O87    O     0.19469   0.60843   0.74427   0.00000  Uiso   1.00
O88    O     0.11200   0.85015   0.63327   0.00000  Uiso   1.00
O89    O     0.15153   0.74770   0.73342   0.00000  Uiso   1.00
C90    C     0.02455   0.81229   0.76162   0.00000  Uiso   1.00
C91    C     0.36712  -0.00992   0.10603   0.00000  Uiso   1.00
C92    C     0.49152   0.05330   0.24235   0.00000  Uiso   1.00
C93    C     0.44931   0.86353   0.12768   0.00000  Uiso   1.00
C94    C     0.16913   0.04605   0.11280   0.00000  Uiso   1.00
C95    C     0.29904   0.03489   0.31169   0.00000  Uiso   1.00
C96    C     0.46614   0.19248   0.40379   0.00000  Uiso   1.00
O97    O     0.28843   0.18561   0.37967   0.00000  Uiso   1.00
O98    O     0.26775   0.03136   0.49528   0.00000  Uiso   1.00
C99    C     0.32093   0.22083   0.56129   0.00000  Uiso   1.00
C100   C     0.29427   0.06529   0.65417   0.00000  Uiso   1.00
C101   C     0.65476   0.02103   0.72788   0.00000  Uiso   1.00
C102   C     0.47980   0.98659   0.77855   0.00000  Uiso   1.00
O103   O     0.43244   0.12746   0.56970   0.00000  Uiso   1.00
O104   O     0.54115   0.09047   0.66049   0.00000  Uiso   1.00
C105   C     0.36191   0.21274   0.25157   0.00000  Uiso   1.00
C106   C     0.35626   0.21780  -0.01384   0.00000  Uiso   1.00
C107   C     0.49755   0.15107  -0.04995   0.00000  Uiso   1.00
C108   C     0.52897   0.27039   0.09064   0.00000  Uiso   1.00
O109   O     0.25040   0.43648   0.19741   0.00000  Uiso   1.00
C110   C     0.31369   0.39164   0.33368   0.00000  Uiso   1.00
O111   O     0.24453   0.51606   0.32373   0.00000  Uiso   1.00
O112   O     0.52203   0.33765  -0.04576   0.00000  Uiso   1.00
O113   O     0.21154   0.38417   0.52877   0.00000  Uiso   1.00
O114   O     0.25619   0.51579   0.64458   0.00000  Uiso   1.00
C115   C     0.45394   0.27983   0.76871   0.00000  Uiso   1.00
O116   O     0.56187   0.26425   0.66828   0.00000  Uiso   1.00
O117   O     0.28165   0.39267   0.79508   0.00000  Uiso   1.00
O118   O     0.43727   0.42247   0.87461   0.00000  Uiso   1.00
C119   C     0.31625   0.48031   0.93660   0.00000  Uiso   1.00
O120   O     0.36501   0.44176   0.61936   0.00000  Uiso   1.00
O121   O     0.50260   0.39831   0.66285   0.00000  Uiso   1.00
O122   O     0.39109   0.55661   0.27227   0.00000  Uiso   1.00
C123   C     0.53476   0.50935   0.01973   0.00000  Uiso   1.00
C124   C     0.51771   0.50062   0.22235   0.00000  Uiso   1.00
C125   C     0.43402   0.60833   0.13236   0.00000  Uiso   1.00
C126   C     0.56307   0.69360   0.27891   0.00000  Uiso   1.00
O127   O     0.26116   0.71421   0.24880   0.00000  Uiso   1.00
O128   O     0.34107   0.87844   0.22776   0.00000  Uiso   1.00
O129   O     0.25613   0.83531   0.33912   0.00000  Uiso   1.00
C130   C     0.33911   0.55929   0.52106   0.00000  Uiso   1.00
C131   C     0.71683   0.81445   0.45111   0.00000  Uiso   1.00
C132   C     0.70954   0.98436   0.51915   0.00000  Uiso   1.00
C133   C     0.63915   0.81389   0.59032   0.00000  Uiso   1.00
O134   O     0.25118   0.70367   0.47755   0.00000  Uiso   1.00
C135   C     0.42994   0.77217   0.53692   0.00000  Uiso   1.00
C136   C     0.32292   0.88952   0.53173   0.00000  Uiso   1.00
C137   C     0.29055   0.75118   0.63221   0.00000  Uiso   1.00
C138   C     0.20237   0.94061   0.77635   0.00000  Uiso   1.00
O139   O     0.41259   0.81837   0.34060   0.00000  Uiso   1.00
O140   O     0.55566   0.83700   0.44412   0.00000  Uiso   1.00
C141   C     0.49981   0.98239   0.43395   0.00000  Uiso   1.00
C142   C     0.58675   0.92522   0.32021   0.00000  Uiso   1.00
O143   O     0.40319   0.55490   0.81619   0.00000  Uiso   1.00
O144   O     0.50254   0.54872   0.72746   0.00000  Uiso   1.00
C145   C     0.45093   0.69550   0.72786   0.00000  Uiso   1.00
C146   C     0.57078   0.68429   0.85764   0.00000  Uiso   1.00
O147   O     0.20989   0.71425   0.87115   0.00000  Uiso   1.00
C148   C     0.35593   0.71400   0.94250   0.00000  Uiso   1.00
C149   C     0.34540   0.88993   0.90905   0.00000  Uiso   1.00
C150   C     0.62972   1.17678   0.80299   0.00000  Uiso   1.00
O151   O     0.25260   0.78154   1.01545   0.00000  Uiso   1.00
C152   C     0.86448   0.14951   0.15601   0.00000  Uiso   1.00
C153   C     0.71113   1.01241   0.20515   0.00000  Uiso   1.00
O154   O     1.01941   0.24988   0.90516   0.00000  Uiso   1.00
C155   C     0.67285   0.11481   0.08530   0.00000  Uiso   1.00
C156   C     0.87389   0.11989  -0.03943   0.00000  Uiso   1.00
C157   C     0.85608   0.25454   0.86360   0.00000  Uiso   1.00
C158   C     0.76334   0.20899   0.62974   0.00000  Uiso   1.00
C159   C     0.72851   0.36125   0.56110   0.00000  Uiso   1.00
C160   C     0.71533   0.21242   0.45602   0.00000  Uiso   1.00
O161   O     0.59576   0.18828   0.55706   0.00000  Uiso   1.00
C162   C     0.81534   0.32089   0.07565   0.00000  Uiso   1.00
O163   O     0.95025   0.30555   0.01164   0.00000  Uiso   1.00
O164   O     0.99532   0.44020   0.12179   0.00000  Uiso   1.00
O165   O     0.92376   0.53035   0.87397   0.00000  Uiso   1.00
O166   O     0.90181   0.43859  -0.01613   0.00000  Uiso   1.00
C167   C     0.51322   0.58629   0.44150   0.00000  Uiso   1.00
C168   C     0.52260   0.40856   0.46336   0.00000  Uiso   1.00
C169   C     0.67538   0.57465   0.52908   0.00000  Uiso   1.00
O170   O     0.52284   0.52544   0.58533   0.00000  Uiso   1.00
O171   O     0.94310   0.49387   0.23907   0.00000  Uiso   1.00
C172   C     0.75766   0.40145   0.24834   0.00000  Uiso   1.00
C173   C     0.88233   0.34384   0.31631   0.00000  Uiso   1.00
C174   C     0.88315   0.54325   0.36460   0.00000  Uiso   1.00
O175   O     0.62410   0.40360   0.77935   0.00000  Uiso   1.00
O176   O     0.75879   0.45850   0.90245   0.00000  Uiso   1.00
O177   O     0.61049   0.48230   0.90495   0.00000  Uiso   1.00
C178   C     0.81436   0.54508   0.12605   0.00000  Uiso   1.00
O179   O     0.88843   0.59784  -0.00212   0.00000  Uiso   1.00
O180   O     0.96736   0.70115   0.13475   0.00000  Uiso   1.00
C181   C     0.76265   0.87706   0.94935   0.00000  Uiso   1.00
C182   C     0.81131   0.70933   0.05474   0.00000  Uiso   1.00
C183   C     0.63540   0.79768   0.05545   0.00000  Uiso   1.00
O184   O     0.74202   0.98742   0.06401   0.00000  Uiso   1.00
C185   C     0.59089   0.91335   0.95380   0.00000  Uiso   1.00
O186   O     0.95009   0.80413   0.24324   0.00000  Uiso   1.00
C187   C     0.77730   0.76849   0.25877   0.00000  Uiso   1.00
C188   C     0.92895   0.92880   0.33393   0.00000  Uiso   1.00
C189   C     0.87249   0.91475   0.16593   0.00000  Uiso   1.00
O190   O     0.71410   0.57492   0.82631   0.00000  Uiso   1.00
C191   C     0.82459   0.58385   0.71620   0.00000  Uiso   1.00
C192   C     0.72234   0.69968   0.72183   0.00000  Uiso   1.00
C193   C     0.86543   0.73049   0.85919   0.00000  Uiso   1.00
H194   H    -0.02405  -0.06693   0.01345   0.00000  Uiso   1.00
H195   H    -0.02548  -0.16846   0.00300   0.00000  Uiso   1.00
H196   H     0.04237  -0.08992  -0.04363   0.00000  Uiso   1.00
H197   H     0.05903   0.14412   0.28618   0.00000  Uiso   1.00
H198   H     0.11673   0.07887   0.26097   0.00000  Uiso   1.00
H199   H     0.16656   0.19486   0.25542   0.00000  Uiso   1.00
H200   H     0.09172   0.08848   0.89949   0.00000  Uiso   1.00
H201   H     0.17059   0.19620   0.93702   0.00000  Uiso   1.00
H202   H     0.17072   0.14036   0.84306   0.00000  Uiso   1.00
H203   H     0.95183   0.19369   0.72253   0.00000  Uiso   1.00
H204   H     0.91653   0.11133   0.78599   0.00000  Uiso   1.00
H205   H     0.98884   0.10220   0.72527   0.00000  Uiso   1.00
H206   H     0.09947   0.29908   0.22770   0.00000  Uiso   1.00
H207   H     0.07725   0.20882   0.15485   0.00000  Uiso   1.00
H208   H     0.03614   0.29161   0.14021   0.00000  Uiso   1.00
H209   H     0.28829   0.32465   0.05728   0.00000  Uiso   1.00
H210   H     0.22388   0.22477   0.09419   0.00000  Uiso   1.00
H211   H     0.31552   0.32282   0.15327   0.00000  Uiso   1.00
H212   H     0.14324   0.34428   0.00012   0.00000  Uiso   1.00
H213   H     0.21745   0.45870   0.03682   0.00000  Uiso   1.00
H214   H     0.10452   0.41574   0.04826   0.00000  Uiso   1.00
H215   H     0.04368   0.19998   0.50667   0.00000  Uiso   1.00
H216   H     0.00062   0.24366   0.42866   0.00000  Uiso   1.00
H217   H     0.02716   0.30131   0.52194   0.00000  Uiso   1.00
H218   H     0.92192   0.51386   0.62692   0.00000  Uiso   1.00
H219   H     0.92604   0.59095   0.55782   0.00000  Uiso   1.00
H220   H     1.00157   0.63130   0.64973   0.00000  Uiso   1.00
H221   H     0.94044   0.38291   0.52746   0.00000  Uiso   1.00
H222   H     1.00017   0.41946   0.45445   0.00000  Uiso   1.00
H223   H     0.91034   0.45243   0.46564   0.00000  Uiso   1.00
H224   H     0.10085   0.24326   0.63355   0.00000  Uiso   1.00
H225   H     0.17966   0.21410   0.69870   0.00000  Uiso   1.00
H226   H     0.21444   0.29739   0.63515   0.00000  Uiso   1.00
H227   H     0.10024   0.44420   0.85570   0.00000  Uiso   1.00
H228   H     0.04173   0.43228   0.93149   0.00000  Uiso   1.00
H229   H     0.13884   0.53635   0.91853   0.00000  Uiso   1.00
H230   H     0.88087   0.41576   0.73003   0.00000  Uiso   1.00
H231   H     0.95783   0.36536   0.76052   0.00000  Uiso   1.00
H232   H     0.98744   0.45389   0.70207   0.00000  Uiso   1.00
H233   H     0.27308   0.65663   0.09140   0.00000  Uiso   1.00
H234   H     0.17106   0.57210   0.06670   0.00000  Uiso   1.00
H235   H     0.24580   0.56285   0.14236   0.00000  Uiso   1.00
H236   H     0.01759   0.72545   0.99290   0.00000  Uiso   1.00
H237   H     0.07532   0.64159   0.98267   0.00000  Uiso   1.00
H238   H     0.08688   0.74022   0.92910   0.00000  Uiso   1.00
H239   H     0.93981   0.86098   0.63217   0.00000  Uiso   1.00
H240   H     0.94360   0.93148   0.55687   0.00000  Uiso   1.00
H241   H     1.02319   0.97700   0.65102   0.00000  Uiso   1.00
H242   H     0.93587   0.72691   0.52515   0.00000  Uiso   1.00
H243   H     1.03580   0.74360   0.48243   0.00000  Uiso   1.00
H244   H     0.95309   0.78876   0.45271   0.00000  Uiso   1.00
H245   H     0.00244   0.86561   0.77928   0.00000  Uiso   1.00
H246   H     0.03895   0.78573   0.81247   0.00000  Uiso   1.00
H247   H    -0.03507   0.75872   0.72760   0.00000  Uiso   1.00
H248   H     0.33353  -0.06656   0.05995   0.00000  Uiso   1.00
H249   H     0.41502   0.04611   0.08546   0.00000  Uiso   1.00
H250   H     0.31417   0.01153   0.12014   0.00000  Uiso   1.00
H251   H     0.44747   0.08974   0.24169   0.00000  Uiso   1.00
H252   H     0.55336   0.08238   0.21723   0.00000  Uiso   1.00
H253   H     0.50903   0.04728   0.30333   0.00000  Uiso   1.00
H254   H     0.39990   0.81025   0.09153   0.00000  Uiso   1.00
H255   H     0.48636   0.82827   0.15735   0.00000  Uiso   1.00
H256   H     0.50283   0.90767   0.09548   0.00000  Uiso   1.00
H257   H     0.20405   0.06740   0.06499   0.00000  Uiso   1.00
H258   H     0.21955   0.06754   0.16773   0.00000  Uiso   1.00
H259   H     0.12255   0.07896   0.11222   0.00000  Uiso   1.00
H260   H     0.32339   0.00479   0.35537   0.00000  Uiso   1.00
H261   H     0.30997   0.02162   0.25191   0.00000  Uiso   1.00
H262   H     0.22811   0.00928   0.31108   0.00000  Uiso   1.00
H263   H     0.46958   0.20410   0.46518   0.00000  Uiso   1.00
H264   H     0.51419   0.25684   0.39355   0.00000  Uiso   1.00
H265   H     0.49160   0.14458   0.39105   0.00000  Uiso   1.00
H266   H     0.34725   0.25962   0.61921   0.00000  Uiso   1.00
H267   H     0.24797   0.20929   0.54201   0.00000  Uiso   1.00
H268   H     0.35745   0.25946   0.52271   0.00000  Uiso   1.00
H269   H     0.26362   0.10973   0.67768   0.00000  Uiso   1.00
H270   H     0.35174   0.06074   0.69256   0.00000  Uiso   1.00
H271   H     0.24577  -0.00312   0.63887   0.00000  Uiso   1.00
H272   H     0.63424  -0.01414   0.67010   0.00000  Uiso   1.00
H273   H     0.64329  -0.03604   0.76681   0.00000  Uiso   1.00
H274   H     0.72484   0.06121   0.73204   0.00000  Uiso   1.00
H275   H     0.44573   0.92139   0.73722   0.00000  Uiso   1.00
H276   H     0.42974   1.01753   0.78388   0.00000  Uiso   1.00
H277   H     0.50327   0.97654   0.83685   0.00000  Uiso   1.00
H278   H     0.36562   0.17027   0.20693   0.00000  Uiso   1.00
H279   H     0.42607   0.27026   0.26444   0.00000  Uiso   1.00
H280   H     0.30506   0.23653   0.24283   0.00000  Uiso   1.00
H281   H     0.33887   0.21396   0.04278   0.00000  Uiso   1.00
H282   H     0.31555   0.14806  -0.04821   0.00000  Uiso   1.00
H283   H     0.34080   0.26855  -0.03976   0.00000  Uiso   1.00
H284   H     0.46054   0.12972  -0.10743   0.00000  Uiso   1.00
H285   H     0.47841   0.10095  -0.00928   0.00000  Uiso   1.00
H286   H     0.56743   0.16396  -0.05263   0.00000  Uiso   1.00
H287   H     0.49579   0.21578   0.12404   0.00000  Uiso   1.00
H288   H     0.51224   0.32957   0.10867   0.00000  Uiso   1.00
H289   H     0.60545   0.28970   0.10109   0.00000  Uiso   1.00
H290   H     0.37330   0.37860   0.32115   0.00000  Uiso   1.00
H291   H     0.25090   0.33265   0.31566   0.00000  Uiso   1.00
H292   H     0.32265   0.40519   0.39706   0.00000  Uiso   1.00
H293   H     0.42016   0.21068   0.74199   0.00000  Uiso   1.00
H294   H     0.40722   0.30976   0.76067   0.00000  Uiso   1.00
H295   H     0.47884   0.27729   0.82636   0.00000  Uiso   1.00
H296   H     0.28180   0.41328   0.95782   0.00000  Uiso   1.00
H297   H     0.27212   0.50916   0.91477   0.00000  Uiso   1.00
H298   H     0.36745   0.52733   0.98143   0.00000  Uiso   1.00
H299   H     0.53381   0.57501   0.00220   0.00000  Uiso   1.00
H300   H     0.59947   0.52558   0.05470   0.00000  Uiso   1.00
H301   H     0.48692   0.47018   0.05272   0.00000  Uiso   1.00
H302   H     0.58654   0.53368   0.21446   0.00000  Uiso   1.00
H303   H     0.47656   0.44203   0.17625   0.00000  Uiso   1.00
H304   H     0.52400   0.47877   0.28344   0.00000  Uiso   1.00
H305   H     0.37753   0.54737   0.10560   0.00000  Uiso   1.00
H306   H     0.48663   0.62879   0.09721   0.00000  Uiso   1.00
H307   H     0.41439   0.66828   0.13821   0.00000  Uiso   1.00
H308   H     0.58174   0.74427   0.24173   0.00000  Uiso   1.00
H309   H     0.62122   0.68011   0.30014   0.00000  Uiso   1.00
H310   H     0.54343   0.73001   0.32337   0.00000  Uiso   1.00
H311   H     0.29875   0.59477   0.50122   0.00000  Uiso   1.00
H312   H     0.34115   0.52219   0.47024   0.00000  Uiso   1.00
H313   H     0.40294   0.60676   0.55148   0.00000  Uiso   1.00
H314   H     0.74250   0.86267   0.40856   0.00000  Uiso   1.00
H315   H     0.68243   0.74109   0.42620   0.00000  Uiso   1.00
H316   H     0.77950   0.83322   0.49010   0.00000  Uiso   1.00
H317   H     0.66901   1.01914   0.53552   0.00000  Uiso   1.00
H318   H     0.72877   1.00437   0.46584   0.00000  Uiso   1.00
H319   H     0.77286   0.99999   0.56092   0.00000  Uiso   1.00
H320   H     0.59552   0.83934   0.61526   0.00000  Uiso   1.00
H321   H     0.70517   0.83690   0.62634   0.00000  Uiso   1.00
H322   H     0.59535   0.74447   0.58340   0.00000  Uiso   1.00
H323   H     0.42526   0.72668   0.48259   0.00000  Uiso   1.00
H324   H     0.44762   0.74529   0.58680   0.00000  Uiso   1.00
H325   H     0.47499   0.84519   0.54242   0.00000  Uiso   1.00
H326   H     0.25471   0.88093   0.53924   0.00000  Uiso   1.00
H327   H     0.33172   0.90809   0.47689   0.00000  Uiso   1.00
H328   H     0.37355   0.94438   0.57900   0.00000  Uiso   1.00
H329   H     0.26987   0.67927   0.63299   0.00000  Uiso   1.00
H330   H     0.23781   0.77164   0.62787   0.00000  Uiso   1.00
H331   H     0.34257   0.79054   0.67861   0.00000  Uiso   1.00
H332   H     0.27177   0.95809   0.76669   0.00000  Uiso   1.00
H333   H     0.20011   0.94188   0.83740   0.00000  Uiso   1.00
H334   H     0.18473   0.99380   0.76448   0.00000  Uiso   1.00
H335   H     0.50559   0.97809   0.49510   0.00000  Uiso   1.00
H336   H     0.43893   0.97991   0.40522   0.00000  Uiso   1.00
H337   H     0.55963   1.04263   0.42619   0.00000  Uiso   1.00
H338   H     0.54262   0.91887   0.26895   0.00000  Uiso   1.00
H339   H     0.62172   0.87989   0.31254   0.00000  Uiso   1.00
H340   H     0.63020   0.99575   0.34270   0.00000  Uiso   1.00
H341   H     0.41663   0.72278   0.76772   0.00000  Uiso   1.00
H342   H     0.40997   0.65681   0.67585   0.00000  Uiso   1.00
H343   H     0.51257   0.74656   0.71573   0.00000  Uiso   1.00
H344   H     0.61103   0.64575   0.87459   0.00000  Uiso   1.00
H345   H     0.53889   0.68886   0.90644   0.00000  Uiso   1.00
H346   H     0.60673   0.74900   0.83733   0.00000  Uiso   1.00
H347   H     0.32739   0.65084   0.96788   0.00000  Uiso   1.00
H348   H     0.42150   0.76496   0.97546   0.00000  Uiso   1.00
H349   H     0.36146   0.69099   0.88289   0.00000  Uiso   1.00
H350   H     0.34798   0.88664   0.84595   0.00000  Uiso   1.00
H351   H     0.41192   0.92437   0.94579   0.00000  Uiso   1.00
H352   H     0.31179   0.93050   0.91030   0.00000  Uiso   1.00
H353   H     0.67837   1.22430   0.77800   0.00000  Uiso   1.00
H354   H     0.65713   1.16886   0.85997   0.00000  Uiso   1.00
H355   H     0.58170   1.20161   0.81285   0.00000  Uiso   1.00
H356   H     0.90911   0.11748   0.15854   0.00000  Uiso   1.00
H357   H     0.88123   0.18950   0.21595   0.00000  Uiso   1.00
H358   H     0.88724   0.19288   0.11077   0.00000  Uiso   1.00
H359   H     0.65566   0.94437   0.19068   0.00000  Uiso   1.00
H360   H     0.69231   1.05153   0.24137   0.00000  Uiso   1.00
H361   H     0.76606   1.00876   0.24054   0.00000  Uiso   1.00
H362   H     0.67865   0.11636   0.02341   0.00000  Uiso   1.00
H363   H     0.69076   0.18488   0.10849   0.00000  Uiso   1.00
H364   H     0.60989   0.07517   0.09836   0.00000  Uiso   1.00
H365   H     0.90852   0.11507   0.01651   0.00000  Uiso   1.00
H366   H     0.88411   0.06986  -0.07956   0.00000  Uiso   1.00
H367   H     0.80457   0.10155  -0.03270   0.00000  Uiso   1.00
H368   H     0.83130   0.19800   0.81550   0.00000  Uiso   1.00
H369   H     0.89678   0.31934   0.84903   0.00000  Uiso   1.00
H370   H     0.79741   0.25880   0.87866   0.00000  Uiso   1.00
H371   H     0.83644   0.25479   0.63324   0.00000  Uiso   1.00
H372   H     0.75694   0.13554   0.62154   0.00000  Uiso   1.00
H373   H     0.75151   0.22792   0.68454   0.00000  Uiso   1.00
H374   H     0.80051   0.39777   0.57459   0.00000  Uiso   1.00
H375   H     0.69897   0.37350   0.61075   0.00000  Uiso   1.00
H376   H     0.69380   0.38397   0.51638   0.00000  Uiso   1.00
H377   H     0.70778   0.14261   0.44289   0.00000  Uiso   1.00
H378   H     0.78294   0.25251   0.45316   0.00000  Uiso   1.00
H379   H     0.66243   0.22256   0.41483   0.00000  Uiso   1.00
H380   H     0.83023   0.31737   0.13546   0.00000  Uiso   1.00
H381   H     0.78783   0.25467   0.04260   0.00000  Uiso   1.00
H382   H     0.76570   0.35059   0.06003   0.00000  Uiso   1.00
H383   H     0.50369   0.64490   0.46763   0.00000  Uiso   1.00
H384   H     0.45580   0.53645   0.39811   0.00000  Uiso   1.00
H385   H     0.56455   0.61378   0.40790   0.00000  Uiso   1.00
H386   H     0.55725   0.38360   0.50861   0.00000  Uiso   1.00
H387   H     0.56384   0.42052   0.42055   0.00000  Uiso   1.00
H388   H     0.45148   0.37113   0.44075   0.00000  Uiso   1.00
H389   H     0.69739   0.55646   0.58313   0.00000  Uiso   1.00
H390   H     0.69754   0.65038   0.52617   0.00000  Uiso   1.00
H391   H     0.69665   0.54777   0.48103   0.00000  Uiso   1.00
H392   H     0.72394   0.36487   0.29079   0.00000  Uiso   1.00
H393   H     0.75112   0.35901   0.19474   0.00000  Uiso   1.00
H394   H     0.72998   0.45291   0.23628   0.00000  Uiso   1.00
H395   H     0.85429   0.29080   0.26801   0.00000  Uiso   1.00
H396   H     0.84846   0.32685   0.36625   0.00000  Uiso   1.00
H397   H     0.95103   0.35983   0.33346   0.00000  Uiso   1.00
H398   H     0.94817   0.56460   0.40626   0.00000  Uiso   1.00
H399   H     0.83173   0.52747   0.39793   0.00000  Uiso   1.00
H400   H     0.89197   0.60047   0.33575   0.00000  Uiso   1.00
H401   H     0.79965   0.56057   0.18143   0.00000  Uiso   1.00
H402   H     0.85732   0.51189   0.12924   0.00000  Uiso   1.00
H403   H     0.74864   0.50217   0.09020   0.00000  Uiso   1.00
H404   H     0.73813   0.79711   0.93219   0.00000  Uiso   1.00
H405   H     0.82611   0.90133   0.98839   0.00000  Uiso   1.00
H406   H     0.77039   0.90557   0.89394   0.00000  Uiso   1.00
H407   H     0.74787   0.66296   0.01915   0.00000  Uiso   1.00
H408   H     0.84454   0.76511   0.02857   0.00000  Uiso   1.00
H409   H     0.79604   0.73732   0.10318   0.00000  Uiso   1.00
H410   H     0.56959   0.78270   0.06587   0.00000  Uiso   1.00
H411   H     0.67992   0.81185   0.10931   0.00000  Uiso   1.00
H412   H     0.64171   0.73603   0.02668   0.00000  Uiso   1.00
H413   H     0.54321   0.91263   0.98546   0.00000  Uiso   1.00
H414   H     0.55131   0.86235   0.90622   0.00000  Uiso   1.00
H415   H     0.61941   0.97817   0.93142   0.00000  Uiso   1.00
H416   H     0.75884   0.70885   0.21718   0.00000  Uiso   1.00
H417   H     0.72871   0.79532   0.24485   0.00000  Uiso   1.00
H418   H     0.77598   0.75550   0.31927   0.00000  Uiso   1.00
H419   H     0.99032   0.97969   0.32509   0.00000  Uiso   1.00
H420   H     0.95192   0.90101   0.38303   0.00000  Uiso   1.00
H421   H     0.89140   0.97061   0.34628   0.00000  Uiso   1.00
H422   H     0.92579   0.97899   0.18252   0.00000  Uiso   1.00
H423   H     0.81520   0.92729   0.16735   0.00000  Uiso   1.00
H424   H     0.87295   0.88245   0.10843   0.00000  Uiso   1.00
H425   H     0.85250   0.63071   0.67637   0.00000  Uiso   1.00
H426   H     0.76805   0.52427   0.68188   0.00000  Uiso   1.00
H427   H     0.87425   0.56525   0.74814   0.00000  Uiso   1.00
H428   H     0.69424   0.73134   0.75745   0.00000  Uiso   1.00
H429   H     0.66959   0.65397   0.67865   0.00000  Uiso   1.00
H430   H     0.77837   0.74672   0.69951   0.00000  Uiso   1.00
H431   H     0.88830   0.80361   0.84154   0.00000  Uiso   1.00
H432   H     0.92200   0.71377   0.87687   0.00000  Uiso   1.00
H433   H     0.83099   0.72839   0.90667   0.00000  Uiso   1.00
loop_
_geom_bond_atom_site_label_1
_geom_bond_atom_site_label_2
_geom_bond_distance
_geom_bond_site_symmetry_2
_ccdc_geom_bond_type
Si1    C52     1.870   .     S
Si1    C94     1.920   .     S
Si1    O74     1.586   1_545 S
Si1    O76     1.539   1_545 S
Si2    O54     1.683   .     S
Si2    O98     1.619   .     S
Si2    O80     1.611   1_545 S
Si2    O85     1.632   1_545 S
Si3    C53     1.838   .     S
Si3    O54     1.613   .     S
Si3    O61     1.618   .     S
Si3    O97     1.571   .     S
Si4    C55     1.929   .     S
Si4    O66     1.599   .     S
Si4    C56     1.869   1_455 S
Si4    O154    1.614   1_455 S
Si5    C57     1.864   .     S
Si5    C58     1.859   .     S
Si5    C59     1.875   .     S
Si5    O109    1.551   .     S
Si6    O64     1.608   .     S
Si6    O72     1.617   .     S
Si6    O164    1.596   1_455 S
Si6    O171    1.639   1_455 S
Si7    C60     1.856   .     S
Si7    O61     1.638   .     S
Si7    O65     1.621   .     S
Si7    O113    1.608   .     S
Si8    O70     1.577   .     S
Si8    O78     1.622   .     S
Si8    C62     1.877   1_455 S
Si8    C63     1.835   1_455 S
Si9    O64     1.663   .     S
Si9    O65     1.693   .     S
Si9    O79     1.597   .     S
Si9    O111    1.562   .     S
Si10   O66     1.534   .     S
Si10   C67     1.883   .     S
Si10   O71     1.590   .     S
Si10   O117    1.660   .     S
Si11   C68     1.891   .     S
Si11   O86     1.637   .     S
Si11   C69     1.893   1_455 S
Si11   O165    1.598   1_455 S
Si12   O70     1.563   .     S
Si12   O71     1.636   .     S
Si12   O87     1.603   .     S
Si12   O114    1.644   .     S
Si13   O72     1.638   .     S
Si13   C73     1.752   .     S
Si13   O75     1.566   .     S
Si13   O127    1.624   .     S
Si14   O74     1.605   .     S
Si14   O83     1.571   .     S
Si14   O180    1.624   1_455 S
Si14   O186    1.577   1_455 S
Si15   O75     1.609   .     S
Si15   O76     1.586   .     S
Si15   C77     1.787   1_554 S
Si15   O151    1.612   1_554 S
Si16   O78     1.665   .     S
Si16   O79     1.644   .     S
Si16   O84     1.664   .     S
Si16   O134    1.581   .     S
Si17   O80     1.561   .     S
Si17   O88     1.594   .     S
Si17   C81     1.865   1_455 S
Si17   C82     1.829   1_455 S
Si18   O83     1.637   .     S
Si18   O84     1.627   .     S
Si18   O85     1.658   .     S
Si18   O129    1.665   .     S
Si19   O86     1.583   .     S
Si19   O87     1.654   .     S
Si19   O89     1.644   .     S
Si19   O147    1.626   .     S
Si20   O88     1.665   .     S
Si20   O89     1.634   .     S
Si20   C90     1.836   .     S
Si20   C138    1.810   .     S
Si21   C91     1.877   .     S
Si21   C92     1.882   .     S
Si21   C93     1.891   1_545 S
Si21   O128    1.637   1_545 S
Si22   C95     1.857   .     S
Si22   C96     1.921   .     S
Si22   O97     1.582   .     S
Si22   C105    1.851   .     S
Si23   O98     1.611   .     S
Si23   C99     1.925   .     S
Si23   C100    1.868   .     S
Si23   O103    1.615   .     S
Si24   C101    1.825   .     S
Si24   O104    1.585   .     S
Si24   C102    1.872   1_545 S
Si24   C150    1.867   1_545 S
Si25   O103    1.601   .     S
Si25   O104    1.600   .     S
Si25   O116    1.607   .     S
Si25   O161    1.595   .     S
Si26   C106    1.840   .     S
Si26   C107    1.844   .     S
Si26   C108    1.882   .     S
Si26   O112    1.616   .     S
Si27   O109    1.615   .     S
Si27   C110    1.792   .     S
Si27   O111    1.588   .     S
Si27   O122    1.569   .     S
Si28   O112    1.640   .     S
Si28   C123    1.839   .     S
Si28   O118    1.601   1_554 S
Si28   O177    1.555   1_554 S
Si29   O113    1.590   .     S
Si29   O114    1.582   .     S
Si29   O120    1.649   .     S
Si29   C130    1.867   .     S
Si30   C115    1.870   .     S
Si30   O116    1.619   .     S
Si30   O121    1.627   .     S
Si30   O175    1.603   .     S
Si31   O117    1.598   .     S
Si31   O118    1.602   .     S
Si31   C119    1.876   .     S
Si31   O143    1.607   .     S
Si32   O120    1.628   .     S
Si32   O121    1.619   .     S
Si32   O144    1.652   .     S
Si32   O170    1.580   .     S
Si33   O122    1.597   .     S
Si33   C124    1.861   .     S
Si33   C125    1.845   .     S
Si33   C126    1.877   .     S
Si34   O127    1.535   .     S
Si34   O128    1.628   .     S
Si34   O129    1.594   .     S
Si34   O139    1.672   .     S
Si35   C131    1.875   .     S
Si35   C132    1.846   .     S
Si35   C133    1.845   .     S
Si35   O140    1.627   .     S
Si36   O134    1.570   .     S
Si36   C135    1.801   .     S
Si36   C136    1.863   .     S
Si36   C137    1.870   .     S
Si37   O139    1.618   .     S
Si37   O140    1.615   .     S
Si37   C141    1.852   .     S
Si37   C142    1.839   .     S
Si38   O143    1.484   .     S
Si38   O144    1.567   .     S
Si38   C145    1.887   .     S
Si38   C146    1.867   .     S
Si39   O147    1.568   .     S
Si39   C148    1.768   .     S
Si39   C149    1.924   .     S
Si39   O151    1.604   .     S
Si40   C152    1.845   .     S
Si40   C155    1.843   .     S
Si40   C153    1.777   1_545 S
Si40   O184    1.625   1_545 S
Si41   C156    1.858   .     S
Si41   O163    1.598   .     S
Si41   O154    1.599   1_554 S
Si41   C157    1.848   1_554 S
Si42   C158    1.847   .     S
Si42   C159    1.857   .     S
Si42   C160    1.867   .     S
Si42   O161    1.593   .     S
Si43   C162    1.842   .     S
Si43   O163    1.618   .     S
Si43   O164    1.636   .     S
Si43   O166    1.597   .     S
Si44   O166    1.625   .     S
Si44   O179    1.637   .     S
Si44   O165    1.643   1_554 S
Si44   O176    1.669   1_554 S
Si45   C167    1.886   .     S
Si45   C168    1.844   .     S
Si45   C169    1.798   .     S
Si45   O170    1.553   .     S
Si46   O171    1.588   .     S
Si46   C172    1.797   .     S
Si46   C173    1.899   .     S
Si46   C174    1.874   .     S
Si47   O175    1.612   .     S
Si47   O176    1.618   .     S
Si47   O177    1.619   .     S
Si47   O190    1.625   .     S
Si48   C178    1.874   .     S
Si48   O179    1.661   .     S
Si48   O180    1.607   .     S
Si48   C182    1.831   .     S
Si49   C183    1.808   .     S
Si49   O184    1.603   .     S
Si49   C181    1.931   1_554 S
Si49   C185    1.842   1_554 S
Si50   O186    1.599   .     S
Si50   C187    1.809   .     S
Si50   C188    1.839   .     S
Si50   C189    1.853   .     S
Si51   O190    1.579   .     S
Si51   C191    1.892   .     S
Si51   C192    1.890   .     S
Si51   C193    1.878   .     S
C52    H194    1.043   .     S
C52    H195    1.027   .     S
C52    H196    1.124   .     S
C53    H197    1.138   .     S
C53    H198    1.064   .     S
C53    H199    1.110   .     S
C55    H200    1.135   .     S
C55    H201    1.105   .     S
C55    H202    1.104   .     S
C56    H203    1.121   .     S
C56    H204    1.101   .     S
C56    H205    1.086   .     S
C56    Si4     1.869   1_655 S
C57    H206    1.111   .     S
C57    H207    1.088   .     S
C57    H208    1.042   .     S
C58    H209    1.107   .     S
C58    H210    1.102   .     S
C58    H211    1.085   .     S
C59    H212    1.095   .     S
C59    H213    1.091   .     S
C59    H214    1.097   .     S
C60    H215    1.117   .     S
C60    H216    1.106   .     S
C60    H217    1.096   .     S
C62    H218    1.129   .     S
C62    H219    1.082   .     S
C62    H220    1.134   .     S
C62    Si8     1.877   1_655 S
C63    H221    1.143   .     S
C63    H222    1.050   .     S
C63    H223    1.085   .     S
C63    Si8     1.835   1_655 S
C67    H224    1.118   .     S
C67    H225    1.091   .     S
C67    H226    1.147   .     S
C68    H227    1.099   .     S
C68    H228    1.147   .     S
C68    H229    1.112   .     S
C69    H230    1.127   .     S
C69    H231    1.089   .     S
C69    H232    1.124   .     S
C69    Si11    1.893   1_655 S
C73    H233    1.105   .     S
C73    H234    1.059   .     S
C73    H235    1.061   .     S
O74    Si1     1.586   1_565 S
O76    Si1     1.539   1_565 S
C77    H236    1.138   .     S
C77    H237    1.122   .     S
C77    H238    1.102   .     S
C77    Si15    1.787   1_556 S
O80    Si2     1.611   1_565 S
C81    H239    1.148   .     S
C81    H240    1.109   .     S
C81    H241    1.129   .     S
C81    Si17    1.865   1_655 S
C82    H242    1.119   .     S
C82    H243    1.081   .     S
C82    H244    1.082   .     S
C82    Si17    1.829   1_655 S
O85    Si2     1.632   1_565 S
C90    H245    1.113   .     S
C90    H246    1.075   .     S
C90    H247    1.100   .     S
C91    H248    1.104   .     S
C91    H249    1.085   .     S
C91    H250    1.128   .     S
C92    H251    1.111   .     S
C92    H252    1.138   .     S
C92    H253    1.119   .     S
C93    H254    1.036   .     S
C93    H255    1.104   .     S
C93    H256    1.170   .     S
C93    Si21    1.891   1_565 S
C94    H257    1.115   .     S
C94    H258    1.141   .     S
C94    H259    1.104   .     S
C95    H260    1.067   .     S
C95    H261    1.144   .     S
C95    H262    1.097   .     S
C96    H263    1.103   .     S
C96    H264    1.092   .     S
C96    H265    1.051   .     S
C99    H266    1.119   .     S
C99    H267    1.160   .     S
C99    H268    1.068   .     S
C100   H269    1.131   .     S
C100   H270    1.132   .     S
C100   H271    1.080   .     S
C101   H272    1.096   .     S
C101   H273    1.173   .     S
C101   H274    1.090   .     S
C102   H275    1.144   .     S
C102   H276    1.146   .     S
C102   H277    1.114   .     S
C102   Si24    1.872   1_565 S
C105   H278    1.053   .     S
C105   H279    1.098   .     S
C105   H280    1.155   .     S
C106   H281    1.105   .     S
C106   H282    1.148   .     S
C106   H283    1.070   .     S
C107   H284    1.087   .     S
C107   H285    1.118   .     S
C107   H286    1.119   .     S
C108   H287    1.116   .     S
C108   H288    1.142   .     S
C108   H289    1.180   .     S
C110   H290    1.151   .     S
C110   H291    1.100   .     S
C110   H292    1.130   .     S
C115   H293    1.082   .     S
C115   H294    1.069   .     S
C115   H295    1.074   .     S
O118   Si28    1.601   1_556 S
C119   H296    1.139   .     S
C119   H297    1.063   .     S
C119   H298    1.088   .     S
C123   H299    1.136   .     S
C123   H300    1.097   .     S
C123   H301    1.096   .     S
C124   H302    1.106   .     S
C124   H303    1.138   .     S
C124   H304    1.184   .     S
C125   H305    1.090   .     S
C125   H306    1.123   .     S
C125   H307    1.146   .     S
C126   H308    1.077   .     S
C126   H309    1.102   .     S
C126   H310    1.129   .     S
O128   Si21    1.637   1_565 S
C130   H311    1.085   .     S
C130   H312    1.079   .     S
C130   H313    1.084   .     S
C131   H314    1.142   .     S
C131   H315    1.129   .     S
C131   H316    1.096   .     S
C132   H317    1.098   .     S
C132   H318    1.091   .     S
C132   H319    1.137   .     S
C133   H320    1.105   .     S
C133   H321    1.107   .     S
C133   H322    1.067   .     S
C135   H323    1.165   .     S
C135   H324    1.078   .     S
C135   H325    1.120   .     S
C136   H326    1.129   .     S
C136   H327    1.069   .     S
C136   H328    1.160   .     S
C137   H329    1.083   .     S
C137   H330    1.054   .     S
C137   H331    1.075   .     S
C138   H332    1.131   .     S
C138   H333    1.110   .     S
C138   H334    1.040   .     S
C141   H335    1.105   .     S
C141   H336    1.060   .     S
C141   H337    1.133   .     S
C142   H338    1.069   .     S
C142   H339    1.119   .     S
C142   H340    1.101   .     S
C145   H341    1.152   .     S
C145   H342    1.072   .     S
C145   H343    1.110   .     S
C146   H344    1.110   .     S
C146   H345    1.111   .     S
C146   H346    1.107   .     S
C148   H347    1.112   .     S
C148   H348    1.135   .     S
C148   H349    1.147   .     S
C149   H350    1.147   .     S
C149   H351    1.118   .     S
C149   H352    1.021   .     S
C150   H353    1.064   .     S
C150   H354    1.101   .     S
C150   H355    1.063   .     S
C150   Si24    1.867   1_565 S
O151   Si15    1.612   1_556 S
C152   H356    1.063   .     S
C152   H357    1.163   .     S
C152   H358    1.127   .     S
C153   H359    1.117   .     S
C153   H360    1.047   .     S
C153   H361    1.066   .     S
C153   Si40    1.777   1_565 S
O154   Si4     1.614   1_655 S
O154   Si41    1.599   1_556 S
C155   H362    1.139   .     S
C155   H363    1.094   .     S
C155   H364    1.074   .     S
C156   H365    1.113   .     S
C156   H366    1.134   .     S
C156   H367    1.112   .     S
C157   H368    1.125   .     S
C157   H369    1.084   .     S
C157   H370    1.086   .     S
C157   Si41    1.848   1_556 S
C158   H371    1.152   .     S
C158   H372    1.152   .     S
C158   H373    1.088   .     S
C159   H374    1.101   .     S
C159   H375    1.130   .     S
C159   H376    1.093   .     S
C160   H377    1.096   .     S
C160   H378    1.079   .     S
C160   H379    1.142   .     S
C162   H380    1.084   .     S
C162   H381    1.085   .     S
C162   H382    1.125   .     S
O164   Si6     1.596   1_655 S
O165   Si11    1.598   1_655 S
O165   Si44    1.643   1_556 S
C167   H383    1.112   .     S
C167   H384    1.135   .     S
C167   H385    1.097   .     S
C168   H386    1.120   .     S
C168   H387    1.092   .     S
C168   H388    1.106   .     S
C169   H389    1.092   .     S
C169   H390    1.145   .     S
C169   H391    1.113   .     S
O171   Si6     1.639   1_655 S
C172   H392    1.091   .     S
C172   H393    1.118   .     S
C172   H394    1.120   .     S
C173   H395    1.093   .     S
C173   H396    1.131   .     S
C173   H397    1.070   .     S
C174   H398    1.144   .     S
C174   H399    1.085   .     S
C174   H400    1.065   .     S
O176   Si44    1.669   1_556 S
O177   Si28    1.555   1_556 S
C178   H401    1.103   .     S
C178   H402    1.052   .     S
C178   H403    1.121   .     S
O180   Si14    1.624   1_655 S
C181   H404    1.202   .     S
C181   H405    1.098   .     S
C181   H406    1.134   .     S
C181   Si49    1.931   1_556 S
C182   H407    1.108   .     S
C182   H408    1.047   .     S
C182   H409    1.071   .     S
C183   H410    1.084   .     S
C183   H411    1.087   .     S
C183   H412    1.147   .     S
O184   Si40    1.625   1_565 S
C185   H413    1.048   .     S
C185   H414    1.086   .     S
C185   H415    1.105   .     S
C185   Si49    1.842   1_556 S
O186   Si14    1.577   1_655 S
C187   H416    1.097   .     S
C187   H417    1.071   .     S
C187   H418    1.129   .     S
C188   H419    1.084   .     S
C188   H420    1.107   .     S
C188   H421    1.124   .     S
C189   H422    1.065   .     S
C189   H423    1.061   .     S
C189   H424    1.137   .     S
C191   H425    1.101   .     S
C191   H426    1.122   .     S
C191   H427    1.093   .     S
C192   H428    1.067   .     S
C192   H429    1.075   .     S
C192   H430    1.107   .     S
C193   H431    1.179   .     S
C193   H432    1.095   .     S
C193   H433    1.100   .     S
