data_333-13-11-12-15-30-13
_audit_creation_date              2025-03-07
_audit_creation_method            'Materials Studio'
_symmetry_space_group_name_H-M    'P1'
_symmetry_Int_Tables_number       1
_symmetry_cell_setting            triclinic
loop_
_symmetry_equiv_pos_as_xyz
  x,y,z
_cell_length_a                    17.2067
_cell_length_b                    15.8078
_cell_length_c                    19.3423
_cell_angle_alpha                 96.9797
_cell_angle_beta                  81.5234
_cell_angle_gamma                 121.9961
loop_
_atom_site_label
_atom_site_type_symbol
_atom_site_fract_x
_atom_site_fract_y
_atom_site_fract_z
_atom_site_U_iso_or_equiv
_atom_site_adp_type
_atom_site_occupancy
Si1    Si    0.16727   0.05305   0.11475   0.00000  Uiso   1.00
Si2    Si   -0.01755   0.17443   0.16948   0.00000  Uiso   1.00
Si3    Si    0.13332   0.15122  -0.00000   0.00000  Uiso   1.00
Si4    Si    0.17513   0.05032   0.45646   0.00000  Uiso   1.00
Si5    Si    0.18299  -0.00424   0.75627   0.00000  Uiso   1.00
Si6    Si    0.02450   0.19107   0.90993   0.00000  Uiso   1.00
Si7    Si    0.21756   0.18988   0.70749   0.00000  Uiso   1.00
Si8    Si    0.14828   0.33307   0.08958   0.00000  Uiso   1.00
Si9    Si   -0.04846   0.50286   0.19024   0.00000  Uiso   1.00
Si10   Si    0.22442   0.35265   0.82367   0.00000  Uiso   1.00
Si11   Si    0.00257   0.51679   0.90469   0.00000  Uiso   1.00
Si12   Si    0.17482   0.45340   0.72386   0.00000  Uiso   1.00
Si13   Si    0.15809   0.58161   0.42181   0.00000  Uiso   1.00
Si14   Si    0.08507   0.57877   0.75669   0.00000  Uiso   1.00
Si15   Si    0.01008   0.85396   0.84901   0.00000  Uiso   1.00
Si16   Si    0.53004  -0.03851   0.16334   0.00000  Uiso   1.00
Si17   Si    0.45266  -0.01905   0.39791   0.00000  Uiso   1.00
Si18   Si    0.31388   0.16756   0.56473   0.00000  Uiso   1.00
Si19   Si    0.48330   0.15440   0.31736   0.00000  Uiso   1.00
Si20   Si    0.47297   0.31663   0.01871   0.00000  Uiso   1.00
Si21   Si    0.51467   0.54904   0.21314   0.00000  Uiso   1.00
Si22   Si    0.56993   0.52072  -0.03564   0.00000  Uiso   1.00
Si23   Si    0.47090   0.29529   0.44638   0.00000  Uiso   1.00
Si24   Si    0.28670   0.46277   0.58138   0.00000  Uiso   1.00
Si25   Si    0.40992   0.51305   0.90508   0.00000  Uiso   1.00
Si26   Si    0.58410   0.67328   0.08583   0.00000  Uiso   1.00
Si27   Si    0.38423   0.77490   0.24535   0.00000  Uiso   1.00
Si28   Si    0.55686   0.83370   0.03456   0.00000  Uiso   1.00
Si29   Si    0.28568   0.79872   0.46767   0.00000  Uiso   1.00
Si30   Si    0.54766   0.69373   0.82053   0.00000  Uiso   1.00
Si31   Si    0.37138   0.78725   0.97801   0.00000  Uiso   1.00
Si32   Si    0.47825   0.78219   0.72764   0.00000  Uiso   1.00
Si33   Si    0.86085   0.01319   0.06888   0.00000  Uiso   1.00
Si34   Si    0.65836   0.17821   0.22268   0.00000  Uiso   1.00
Si35   Si    0.86011   0.18789  -0.00069   0.00000  Uiso   1.00
Si36   Si    0.78236   0.09854   0.44563   0.00000  Uiso   1.00
Si37   Si    0.76826   0.22770   0.34854   0.00000  Uiso   1.00
Si38   Si    0.86368   0.04518   0.81411   0.00000  Uiso   1.00
Si39   Si    0.68877   0.12100   0.93126   0.00000  Uiso   1.00
Si40   Si    0.82092   0.17131   0.73211   0.00000  Uiso   1.00
Si41   Si    0.80077   0.32208   0.10743   0.00000  Uiso   1.00
Si42   Si    0.82260   0.47383  -0.00506   0.00000  Uiso   1.00
Si43   Si    0.84304   0.55984   0.30599   0.00000  Uiso   1.00
Si44   Si    0.72498   0.49940   0.89140   0.00000  Uiso   1.00
Si45   Si    0.82303   0.54917   0.64779   0.00000  Uiso   1.00
Si46   Si    0.85120   0.67985   0.04762   0.00000  Uiso   1.00
Si47   Si    0.72936   0.85232   0.16518   0.00000  Uiso   1.00
Si48   Si    0.85775   0.84400  -0.03480   0.00000  Uiso   1.00
Si49   Si    0.85687   0.65358   0.79681   0.00000  Uiso   1.00
Si50   Si    0.70926   0.85962   0.91069   0.00000  Uiso   1.00
Si51   Si    0.86546   0.91616   0.67907   0.00000  Uiso   1.00
C52    C     0.24693   0.17204   0.17019   0.00000  Uiso   1.00
C53    C     0.08776   0.96664   0.18698   0.00000  Uiso   1.00
C54    C     0.23743   1.00222   0.07211   0.00000  Uiso   1.00
C55    C     0.02893   0.17092   0.24990   0.00000  Uiso   1.00
O56    O     0.11439   0.07356   0.05784   0.00000  Uiso   1.00
C57    C     0.22881   0.17249   0.93127   0.00000  Uiso   1.00
C58    C     0.18307   0.15529   0.41386   0.00000  Uiso   1.00
C59    C     0.05237   0.95227   0.46195   0.00000  Uiso   1.00
C60    C     0.25130   1.01840   0.39423   0.00000  Uiso   1.00
C61    C     0.27218  -0.01231   0.80321   0.00000  Uiso   1.00
C62    C     0.16975   0.92196   0.66991   0.00000  Uiso   1.00
O63    O     0.05223   0.13515   0.95946   0.00000  Uiso   1.00
C64    C     0.10359   0.13330   0.68274   0.00000  Uiso   1.00
O65    O     0.21618   0.10683   0.74613   0.00000  Uiso   1.00
O66    O     0.05086   0.26746   0.12792   0.00000  Uiso   1.00
O67    O     0.17399   0.26029   0.04095   0.00000  Uiso   1.00
C68    C     0.13917   0.41563   0.03586   0.00000  Uiso   1.00
C69    C     0.05151   0.50312   0.21079   0.00000  Uiso   1.00
C70    C    -0.01020   0.59807   0.12829   0.00000  Uiso   1.00
O71    O     0.12309   0.28200   0.87185   0.00000  Uiso   1.00
O72    O     0.24831   0.28675   0.76301   0.00000  Uiso   1.00
C73    C     0.08473   0.62908   0.95508   0.00000  Uiso   1.00
C74    C     1.04488   0.43059   0.90038   0.00000  Uiso   1.00
C75    C     0.07112   0.33502   0.70244   0.00000  Uiso   1.00
O76    O     0.22597   0.43467   0.77761   0.00000  Uiso   1.00
C77    C     0.10093   0.52074   0.50607   0.00000  Uiso   1.00
C78    C     0.17741   0.49355   0.35866   0.00000  Uiso   1.00
C79    C     0.07202   0.59468   0.38818   0.00000  Uiso   1.00
O80    O     0.01635   0.54740   0.82677   0.00000  Uiso   1.00
O81    O     0.14860   0.53486   0.75771   0.00000  Uiso   1.00
C82    C     0.02310   0.53681   0.68118   0.00000  Uiso   1.00
C83    C     0.06589   0.82688   0.90959   0.00000  Uiso   1.00
O84    O     0.08163   0.94352   0.79889   0.00000  Uiso   1.00
C85    C     0.44552  -0.00958   0.14031   0.00000  Uiso   1.00
C86    C     0.48145   0.06120   0.47811   0.00000  Uiso   1.00
C87    C     0.54829   0.95950   0.37638   0.00000  Uiso   1.00
O88    O     0.22250   0.08716   0.52996   0.00000  Uiso   1.00
C89    C     0.36926   0.11322   0.60517   0.00000  Uiso   1.00
O90    O     0.28380   0.22113   0.63316   0.00000  Uiso   1.00
C91    C     0.39788   0.15758   0.26670   0.00000  Uiso   1.00
O92    O     0.44580   0.04158   0.33953   0.00000  Uiso   1.00
C93    C     0.36287   0.31616   0.04916   0.00000  Uiso   1.00
C94    C     0.46086   0.24204  -0.06667   0.00000  Uiso   1.00
C95    C     0.51084   0.25603   0.07359   0.00000  Uiso   1.00
C96    C     0.22975   0.41081   0.15716   0.00000  Uiso   1.00
C97    C     0.39957   0.49683   0.26354   0.00000  Uiso   1.00
C98    C     0.52991   0.44063   0.19364   0.00000  Uiso   1.00
C99    C     0.60129   0.63647   0.27481   0.00000  Uiso   1.00
O100   O     0.54497   0.42987   0.00981   0.00000  Uiso   1.00
O101   O     0.38518   0.24255   0.50523   0.00000  Uiso   1.00
O102   O     0.48640   0.21767   0.39213   0.00000  Uiso   1.00
C103   C     0.45486   0.38060   0.39766   0.00000  Uiso   1.00
C104   C     0.57115   0.36201   0.50002   0.00000  Uiso   1.00
C105   C     0.21219   0.34590   0.52824   0.00000  Uiso   1.00
C106   C     0.38549   0.46071   0.60889   0.00000  Uiso   1.00
C107   C     0.34276   0.56423   0.51412   0.00000  Uiso   1.00
O108   O     0.23299   0.48652   0.65057   0.00000  Uiso   1.00
O109   O     0.31832   0.41541   0.86978   0.00000  Uiso   1.00
O110   O     0.48408   0.48874   0.91986   0.00000  Uiso   1.00
C111   C     0.36801   0.54232   0.99471   0.00000  Uiso   1.00
O112   O     0.51541   0.59209   0.14276   0.00000  Uiso   1.00
O113   O     0.59554   0.61961   0.01530   0.00000  Uiso   1.00
C114   C     0.35494   0.67870   0.17530   0.00000  Uiso   1.00
C115   C     0.40962   0.72747   0.31729   0.00000  Uiso   1.00
O116   O     0.47421   0.87678   0.21625   0.00000  Uiso   1.00
C117   C     0.28353   0.79226   0.25828   0.00000  Uiso   1.00
O118   O     0.54324   0.73781   0.06954   0.00000  Uiso   1.00
O119   O     0.57089   0.91796   0.09482   0.00000  Uiso   1.00
O120   O     0.24484   0.68993   0.43261   0.00000  Uiso   1.00
O121   O     0.35093   0.88032   0.41291   0.00000  Uiso   1.00
C122   C     0.18358   0.81014   0.49945   0.00000  Uiso   1.00
O123   O     0.45465   0.61032   0.86273   0.00000  Uiso   1.00
C124   C     0.55245   0.60803   0.74450   0.00000  Uiso   1.00
C125   C     0.16516   0.71750   0.75885   0.00000  Uiso   1.00
C126   C     0.31368   0.68415   0.90799   0.00000  Uiso   1.00
O127   O     0.47126   0.80416   0.99347   0.00000  Uiso   1.00
C128   C     0.37824   0.89780   0.94884   0.00000  Uiso   1.00
C129   C     0.28648   0.74774   1.05286   0.00000  Uiso   1.00
C130   C     0.34415   0.81463   0.54564   0.00000  Uiso   1.00
C131   C     0.36657   0.68052   0.72218   0.00000  Uiso   1.00
O132   O     0.52735   0.76796   0.78773   0.00000  Uiso   1.00
C133   C     0.46783   0.89508   0.73873   0.00000  Uiso   1.00
C134   C     0.53324   0.79603   0.63752   0.00000  Uiso   1.00
O135   O     0.94150   0.07679   0.11677   0.00000  Uiso   1.00
O136   O     0.61300   0.06100   0.19961   0.00000  Uiso   1.00
O137   O     0.57971   0.19689   0.26798   0.00000  Uiso   1.00
O138   O     0.96328   0.22938   0.96019   0.00000  Uiso   1.00
O139   O     0.83730   0.08871   0.03773   0.00000  Uiso   1.00
C140   C     0.89296   0.20329   0.47295   0.00000  Uiso   1.00
C141   C     0.69004   1.07188   0.51768   0.00000  Uiso   1.00
C142   C     0.78151   0.97595   0.41543   0.00000  Uiso   1.00
C143   C     0.89053   0.20055   0.19856   0.00000  Uiso   1.00
C144   C     0.88708   0.33174   0.34407   0.00000  Uiso   1.00
O145   O     0.73675   0.20409   0.27242   0.00000  Uiso   1.00
O146   O     0.75941   0.13147   0.38180   0.00000  Uiso   1.00
C147   C     0.70719   0.27278   0.41318   0.00000  Uiso   1.00
O148   O     0.95689   0.10952   0.85520   0.00000  Uiso   1.00
C149   C     0.62245   0.00703   0.86825   0.00000  Uiso   1.00
O150   O     0.79014   0.14748   0.94151   0.00000  Uiso   1.00
C151   C     0.69319   0.22807   0.90064   0.00000  Uiso   1.00
C152   C     0.62012   0.10459   1.01866   0.00000  Uiso   1.00
C153   C     0.87739   0.16707   0.64910   0.00000  Uiso   1.00
C154   C     0.70216   0.10964   0.71689   0.00000  Uiso   1.00
O155   O     0.83156   0.11787   0.79480   0.00000  Uiso   1.00
C156   C     0.85166   0.30241   0.75731   0.00000  Uiso   1.00
O157   O     0.70567   0.24963   0.15617   0.00000  Uiso   1.00
O158   O     0.84090   0.25951   0.05792   0.00000  Uiso   1.00
O159   O     0.87620   0.39569   0.15986   0.00000  Uiso   1.00
O160   O     0.89739   0.46637   0.93801   0.00000  Uiso   1.00
O161   O     0.78933   0.39321   0.05910   0.00000  Uiso   1.00
O162   O     0.91335   0.53310   0.26141   0.00000  Uiso   1.00
C163   C     0.71814   0.47165   0.29064   0.00000  Uiso   1.00
C164   C     0.84936   0.55903   0.40111   0.00000  Uiso   1.00
C165   C     0.87121   0.68741   0.29129   0.00000  Uiso   1.00
C166   C     0.67092   0.40378   0.81751   0.00000  Uiso   1.00
O167   O     0.74037   0.45251   0.95386   0.00000  Uiso   1.00
O168   O     0.65995   0.54148   0.91725   0.00000  Uiso   1.00
C169   C     0.92271   0.62046   0.58161   0.00000  Uiso   1.00
C170   C     0.72959   0.56347   0.62624   0.00000  Uiso   1.00
C171   C     0.78682   0.41319   0.63483   0.00000  Uiso   1.00
C172   C     0.75488   0.61873   0.11590   0.00000  Uiso   1.00
O173   O     0.87009   0.59176   0.02008   0.00000  Uiso   1.00
C174   C     0.95471   0.77349   0.08874   0.00000  Uiso   1.00
O175   O     0.67905   0.75090   0.11775   0.00000  Uiso   1.00
C176   C     0.82508   0.86316   0.21084   0.00000  Uiso   1.00
O177   O     0.76955   0.93434   0.11368   0.00000  Uiso   1.00
C178   C     0.64964   0.87033   0.22975   0.00000  Uiso   1.00
O179   O     0.93622   0.87662   0.89829   0.00000  Uiso   1.00
O180   O     0.84144   0.74600  -0.00407   0.00000  Uiso   1.00
O181   O     0.88718   0.94520   0.01419   0.00000  Uiso   1.00
O182   O     0.81681   0.58642   0.86125   0.00000  Uiso   1.00
O183   O     0.85414   0.59021   0.72579   0.00000  Uiso   1.00
O184   O     0.95630   0.74894   0.80690   0.00000  Uiso   1.00
O185   O     0.63754   0.76300   0.86457   0.00000  Uiso   1.00
O186   O     0.76595   0.82159   0.94009   0.00000  Uiso   1.00
O187   O     0.77994   0.95353   0.85978   0.00000  Uiso   1.00
O188   O     0.65080   0.87999   0.97944   0.00000  Uiso   1.00
C189   C     0.90130   0.96704   0.59207   0.00000  Uiso   1.00
C190   C     0.74027   0.83304   0.68417   0.00000  Uiso   1.00
C191   C     0.77988   0.70096   0.79510   0.00000  Uiso   1.00
C192   C     0.92877   0.84875   0.67998   0.00000  Uiso   1.00
O193   O     0.89175   0.99916   0.74355   0.00000  Uiso   1.00
H194   H     0.31879   0.19519   0.16343   0.00000  Uiso   1.00
H195   H     0.22281   0.15328   0.22734   0.00000  Uiso   1.00
H196   H     0.23353   0.23088   0.16723   0.00000  Uiso   1.00
H197   H     0.11630   0.98892   0.23877   0.00000  Uiso   1.00
H198   H     0.07727   0.88824   0.17864   0.00000  Uiso   1.00
H199   H     0.02053   0.96104   0.19467   0.00000  Uiso   1.00
H200   H     0.19366   0.94070   0.04210   0.00000  Uiso   1.00
H201   H     0.27580   0.99724   0.11162   0.00000  Uiso   1.00
H202   H     0.28780   1.05958   0.03472   0.00000  Uiso   1.00
H203   H     0.08950   0.16191   0.23689   0.00000  Uiso   1.00
H204   H    -0.03544   0.10969   0.27860   0.00000  Uiso   1.00
H205   H     0.05363   0.24402   0.27904   0.00000  Uiso   1.00
H206   H     0.19529   0.12129   0.88732   0.00000  Uiso   1.00
H207   H     0.27461   0.15544   0.95140   0.00000  Uiso   1.00
H208   H     0.26989   0.24900   0.91369   0.00000  Uiso   1.00
H209   H     0.17520   0.13017   0.35658   0.00000  Uiso   1.00
H210   H     0.25605   0.21695   0.40811   0.00000  Uiso   1.00
H211   H     0.13831   0.18526   0.43738   0.00000  Uiso   1.00
H212   H     0.01402   0.99263   0.46272   0.00000  Uiso   1.00
H213   H     0.03755   0.90432   0.50633   0.00000  Uiso   1.00
H214   H     0.03870   0.89763   0.41418   0.00000  Uiso   1.00
H215   H     0.32071   1.06235   0.41176   0.00000  Uiso   1.00
H216   H     0.23410   1.01317   0.33933   0.00000  Uiso   1.00
H217   H     0.23181   0.94016   0.40286   0.00000  Uiso   1.00
H218   H     0.26785  -0.08430   0.79327   0.00000  Uiso   1.00
H219   H     0.26515  -0.00047   0.86146   0.00000  Uiso   1.00
H220   H     0.33941   0.04526   0.77680   0.00000  Uiso   1.00
H221   H     0.22694   0.91150   0.64797   0.00000  Uiso   1.00
H222   H     0.15294   0.95162   0.62741   0.00000  Uiso   1.00
H223   H     0.11341   0.85261   0.67986   0.00000  Uiso   1.00
H224   H     0.06223   0.15434   0.71960   0.00000  Uiso   1.00
H225   H     0.07503   0.05669   0.68697   0.00000  Uiso   1.00
H226   H     0.09461   0.14320   0.62781   0.00000  Uiso   1.00
H227   H     0.06936   0.40608   0.04898   0.00000  Uiso   1.00
H228   H     0.16141   0.39981  -0.01796   0.00000  Uiso   1.00
H229   H     0.18838   0.49273   0.05458   0.00000  Uiso   1.00
H230   H     0.10235   0.58267   0.22977   0.00000  Uiso   1.00
H231   H     0.09073   0.50096   0.16204   0.00000  Uiso   1.00
H232   H     0.03579   0.44896   0.24818   0.00000  Uiso   1.00
H233   H     0.05085   0.66672   0.14471   0.00000  Uiso   1.00
H234   H    -0.07265   0.60150   0.13398   0.00000  Uiso   1.00
H235   H    -0.00320   0.56709   0.07484   0.00000  Uiso   1.00
H236   H     0.04948   0.65700   0.98985   0.00000  Uiso   1.00
H237   H     0.13698   0.69350   0.92160   0.00000  Uiso   1.00
H238   H     0.12559   0.61100   0.98102   0.00000  Uiso   1.00
H239   H     1.00548   0.36687   0.86188   0.00000  Uiso   1.00
H240   H     1.01946   0.40129   0.95485   0.00000  Uiso   1.00
H241   H     1.12207   0.47120   0.89586   0.00000  Uiso   1.00
H242   H     0.08854   0.28705   0.66274   0.00000  Uiso   1.00
H243   H     0.02504   0.35108   0.67738   0.00000  Uiso   1.00
H244   H     0.03751   0.30252   0.75298   0.00000  Uiso   1.00
H245   H     0.12289   0.57724   0.55068   0.00000  Uiso   1.00
H246   H     0.12339   0.46976   0.51442   0.00000  Uiso   1.00
H247   H     0.02452   0.46686   0.50422   0.00000  Uiso   1.00
H248   H     0.19531   0.52096   0.30728   0.00000  Uiso   1.00
H249   H     0.11169   0.42204   0.36457   0.00000  Uiso   1.00
H250   H     0.23196   0.48300   0.37328   0.00000  Uiso   1.00
H251   H     0.01046   0.52488   0.36197   0.00000  Uiso   1.00
H252   H     0.10417   0.65434   0.35325   0.00000  Uiso   1.00
H253   H     0.03756   0.62317   0.43149   0.00000  Uiso   1.00
H254   H    -0.05165   0.50284   0.69745   0.00000  Uiso   1.00
H255   H     0.04135   0.48430   0.65047   0.00000  Uiso   1.00
H256   H     0.05736   0.60565   0.65334   0.00000  Uiso   1.00
H257   H     0.11148   0.90277   0.93777   0.00000  Uiso   1.00
H258   H     0.12008   0.81983   0.87743   0.00000  Uiso   1.00
H259   H     0.01779   0.75610   0.93824   0.00000  Uiso   1.00
H260   H     0.38826  -0.02957   0.17968   0.00000  Uiso   1.00
H261   H     0.42662  -0.04557   0.09138   0.00000  Uiso   1.00
H262   H     0.48283   0.06934   0.13825   0.00000  Uiso   1.00
H263   H     0.55752   0.11380   0.47433   0.00000  Uiso   1.00
H264   H     0.45775   0.01410   0.52537   0.00000  Uiso   1.00
H265   H     0.45577   0.11311   0.48372   0.00000  Uiso   1.00
H266   H     0.53349   0.90864   0.41742   0.00000  Uiso   1.00
H267   H     0.61078   1.03207   0.38402   0.00000  Uiso   1.00
H268   H     0.54904   0.93714   0.32019   0.00000  Uiso   1.00
H269   H     0.44416   0.16003   0.59355   0.00000  Uiso   1.00
H270   H     0.34623   0.03875   0.58642   0.00000  Uiso   1.00
H271   H     0.35296   0.11430   0.66508   0.00000  Uiso   1.00
H272   H     0.44014   0.22401   0.23840   0.00000  Uiso   1.00
H273   H     0.35178   0.17276   0.30564   0.00000  Uiso   1.00
H274   H     0.36178   0.09097   0.23494   0.00000  Uiso   1.00
H275   H     0.37541   0.35839   0.09949   0.00000  Uiso   1.00
H276   H     0.30733   0.23685   0.05386   0.00000  Uiso   1.00
H277   H     0.34701   0.35159   0.01354   0.00000  Uiso   1.00
H278   H     0.41325   0.15955  -0.05771   0.00000  Uiso   1.00
H279   H     0.52486   0.24165  -0.08500   0.00000  Uiso   1.00
H280   H     0.44842   0.27310  -0.10743   0.00000  Uiso   1.00
H281   H     0.58338   0.30572   0.07921   0.00000  Uiso   1.00
H282   H     0.49199   0.17808   0.05191   0.00000  Uiso   1.00
H283   H     0.46720   0.23457   0.12425   0.00000  Uiso   1.00
H284   H     0.20847   0.36488   0.20273   0.00000  Uiso   1.00
H285   H     0.21539   0.46881   0.17284   0.00000  Uiso   1.00
H286   H     0.30875   0.44605   0.14153   0.00000  Uiso   1.00
H287   H     0.35222   0.41396   0.24905   0.00000  Uiso   1.00
H288   H     0.36076   0.52838   0.25637   0.00000  Uiso   1.00
H289   H     0.41581   0.51174   0.31898   0.00000  Uiso   1.00
H290   H     0.58226   0.45344   0.15354   0.00000  Uiso   1.00
H291   H     0.46459   0.37491   0.17553   0.00000  Uiso   1.00
H292   H     0.54033   0.42490   0.24245   0.00000  Uiso   1.00
H293   H     0.59409   0.59815   0.32135   0.00000  Uiso   1.00
H294   H     0.58335   0.69117   0.29128   0.00000  Uiso   1.00
H295   H     0.67053   0.66121   0.25218   0.00000  Uiso   1.00
H296   H     0.52594   0.43331   0.37020   0.00000  Uiso   1.00
H297   H     0.41930   0.41139   0.43908   0.00000  Uiso   1.00
H298   H     0.40868   0.34161   0.35375   0.00000  Uiso   1.00
H299   H     0.55182   0.40177   0.54309   0.00000  Uiso   1.00
H300   H     0.63293   0.41244   0.46501   0.00000  Uiso   1.00
H301   H     0.58129   0.31255   0.52449   0.00000  Uiso   1.00
H302   H     0.17800   0.27697   0.56065   0.00000  Uiso   1.00
H303   H     0.25746   0.34401   0.48135   0.00000  Uiso   1.00
H304   H     0.15813   0.35353   0.51140   0.00000  Uiso   1.00
H305   H     0.44443   0.53635   0.61133   0.00000  Uiso   1.00
H306   H     0.40253   0.41730   0.56624   0.00000  Uiso   1.00
H307   H     0.36838   0.42777   0.66044   0.00000  Uiso   1.00
H308   H     0.38202   0.64112   0.53222   0.00000  Uiso   1.00
H309   H     0.28026   0.55549   0.49438   0.00000  Uiso   1.00
H310   H     0.38390   0.54808   0.46847   0.00000  Uiso   1.00
H311   H     0.32049   0.56612   0.98631   0.00000  Uiso   1.00
H312   H     0.41560   0.60737   1.02089   0.00000  Uiso   1.00
H313   H     0.33428   0.47808   1.02861   0.00000  Uiso   1.00
H314   H     0.39294   0.63998   0.17774   0.00000  Uiso   1.00
H315   H     0.38072   0.71198   0.12062   0.00000  Uiso   1.00
H316   H     0.27732   0.62809   0.17936   0.00000  Uiso   1.00
H317   H     0.35042   0.64816   0.32674   0.00000  Uiso   1.00
H318   H     0.41902   0.77226   0.36668   0.00000  Uiso   1.00
H319   H     0.47676   0.73050   0.29901   0.00000  Uiso   1.00
H320   H     0.22652   0.72108   0.27266   0.00000  Uiso   1.00
H321   H     0.27654   0.81662   0.21151   0.00000  Uiso   1.00
H322   H     0.28707   0.84276   0.30060   0.00000  Uiso   1.00
H323   H     0.13602   0.79049   0.45884   0.00000  Uiso   1.00
H324   H     0.20709   0.88880   0.52013   0.00000  Uiso   1.00
H325   H     0.14577   0.75961   0.54494   0.00000  Uiso   1.00
H326   H     0.48119   0.54817   0.73241   0.00000  Uiso   1.00
H327   H     0.57797   0.56276   0.76397   0.00000  Uiso   1.00
H328   H     0.58940   0.64919   0.69474   0.00000  Uiso   1.00
H329   H     0.21455   0.73989   0.79857   0.00000  Uiso   1.00
H330   H     0.12038   0.74778   0.77298   0.00000  Uiso   1.00
H331   H     0.20703   0.73858   0.70470   0.00000  Uiso   1.00
H332   H     0.25454   0.61112   0.92902   0.00000  Uiso   1.00
H333   H     0.36007   0.67440   0.86723   0.00000  Uiso   1.00
H334   H     0.27039   0.69987   0.88276   0.00000  Uiso   1.00
H335   H     0.36913   0.94385   0.99329   0.00000  Uiso   1.00
H336   H     0.31449   0.87165   0.92585   0.00000  Uiso   1.00
H337   H     0.43482   0.93706   0.90759   0.00000  Uiso   1.00
H338   H     0.24825   0.66698   1.05835   0.00000  Uiso   1.00
H339   H     0.23480   0.76659   1.04287   0.00000  Uiso   1.00
H340   H     0.30923   0.78568   1.10305   0.00000  Uiso   1.00
H341   H     0.33739   0.86129   0.59170   0.00000  Uiso   1.00
H342   H     0.42037   0.85008   0.52928   0.00000  Uiso   1.00
H343   H     0.31379   0.73547   0.55902   0.00000  Uiso   1.00
H344   H     0.33257   0.67714   0.67363   0.00000  Uiso   1.00
H345   H     0.31908   0.68045   0.76496   0.00000  Uiso   1.00
H346   H     0.37323   0.61318   0.72125   0.00000  Uiso   1.00
H347   H     0.43169   0.89360   0.79015   0.00000  Uiso   1.00
H348   H     0.42340   0.88604   0.70299   0.00000  Uiso   1.00
H349   H     0.53499   0.96780   0.72878   0.00000  Uiso   1.00
H350   H     0.58685   0.87161   0.62809   0.00000  Uiso   1.00
H351   H     0.48623   0.77261   0.59764   0.00000  Uiso   1.00
H352   H     0.56226   0.74619   0.63490   0.00000  Uiso   1.00
H353   H     0.88604   0.25845   0.51525   0.00000  Uiso   1.00
H354   H     0.94567   0.25297   0.43050   0.00000  Uiso   1.00
H355   H     0.92340   0.17289   0.49920   0.00000  Uiso   1.00
H356   H     0.62504   1.02822   0.49355   0.00000  Uiso   1.00
H357   H     0.69593   1.14078   0.53797   0.00000  Uiso   1.00
H358   H     0.69110   1.02165   0.55272   0.00000  Uiso   1.00
H359   H     0.71701   0.91005   0.43186   0.00000  Uiso   1.00
H360   H     0.84090   0.98695   0.44018   0.00000  Uiso   1.00
H361   H     0.80492   0.98197   0.35858   0.00000  Uiso   1.00
H362   H     0.85842   0.16177   0.24540   0.00000  Uiso   1.00
H363   H     0.84519   0.17729   0.15803   0.00000  Uiso   1.00
H364   H     0.92492   0.28271   0.21228   0.00000  Uiso   1.00
H365   H     0.90343   0.36144   0.39898   0.00000  Uiso   1.00
H366   H     0.88425   0.38436   0.31453   0.00000  Uiso   1.00
H367   H     0.93916   0.30717   0.32034   0.00000  Uiso   1.00
H368   H     0.72208   0.26881   0.46362   0.00000  Uiso   1.00
H369   H     0.63372   0.22499   0.40596   0.00000  Uiso   1.00
H370   H     0.72524   0.34912   0.40449   0.00000  Uiso   1.00
H371   H     0.66848   0.00009   0.82205   0.00000  Uiso   1.00
H372   H     0.56895   0.01583   0.85077   0.00000  Uiso   1.00
H373   H     0.59149  -0.05545   0.90158   0.00000  Uiso   1.00
H374   H     0.64497   0.19981   0.86049   0.00000  Uiso   1.00
H375   H     0.76626   0.28142   0.88554   0.00000  Uiso   1.00
H376   H     0.67041   0.26254   0.94623   0.00000  Uiso   1.00
H377   H     0.64857   0.07750   1.05494   0.00000  Uiso   1.00
H378   H     0.54425   0.04875   1.00874   0.00000  Uiso   1.00
H379   H     0.62743   0.17980   1.03509   0.00000  Uiso   1.00
H380   H     0.90017   0.23368   0.61639   0.00000  Uiso   1.00
H381   H     0.82454   0.09896   0.61833   0.00000  Uiso   1.00
H382   H     0.93230   0.15249   0.65072   0.00000  Uiso   1.00
H383   H     0.67988   0.03055   0.71122   0.00000  Uiso   1.00
H384   H     0.68841   0.13704   0.67084   0.00000  Uiso   1.00
H385   H     0.65961   0.11590   0.76273   0.00000  Uiso   1.00
H386   H     0.87835   0.35384   0.71495   0.00000  Uiso   1.00
H387   H     0.89837   0.34202   0.80027   0.00000  Uiso   1.00
H388   H     0.78861   0.29998   0.77901   0.00000  Uiso   1.00
H389   H     0.70633   0.45925   0.23140   0.00000  Uiso   1.00
H390   H     0.67002   0.49774   0.31468   0.00000  Uiso   1.00
H391   H     0.69334   0.39373   0.30586   0.00000  Uiso   1.00
H392   H     0.86358   0.50232   0.41082   0.00000  Uiso   1.00
H393   H     0.78065   0.53921   0.42856   0.00000  Uiso   1.00
H394   H     0.90890   0.63431   0.42094   0.00000  Uiso   1.00
H395   H     0.82831   0.68174   0.25367   0.00000  Uiso   1.00
H396   H     0.94357   0.74106   0.27207   0.00000  Uiso   1.00
H397   H     0.84565   0.71703   0.33966   0.00000  Uiso   1.00
H398   H     0.60022   0.35795   0.83589   0.00000  Uiso   1.00
H399   H     0.69521   0.35314   0.80573   0.00000  Uiso   1.00
H400   H     0.67471   0.43802   0.76930   0.00000  Uiso   1.00
H401   H     0.94123   0.57049   0.55258   0.00000  Uiso   1.00
H402   H     0.98092   0.68007   0.60715   0.00000  Uiso   1.00
H403   H     0.91151   0.65879   0.54393   0.00000  Uiso   1.00
H404   H     0.75091   0.64109   0.62275   0.00000  Uiso   1.00
H405   H     0.66651   0.53033   0.66127   0.00000  Uiso   1.00
H406   H     0.70851   0.52931   0.57497   0.00000  Uiso   1.00
H407   H     0.84404   0.40241   0.61473   0.00000  Uiso   1.00
H408   H     0.73814   0.38275   0.59096   0.00000  Uiso   1.00
H409   H     0.75650   0.38068   0.68507   0.00000  Uiso   1.00
H410   H     0.77067   0.57850   0.14767   0.00000  Uiso   1.00
H411   H     0.68780   0.56407   0.09195   0.00000  Uiso   1.00
H412   H     0.75116   0.67477   0.14982   0.00000  Uiso   1.00
H413   H     1.00375   0.75824   0.06145   0.00000  Uiso   1.00
H414   H     0.94695   0.76325   0.14362   0.00000  Uiso   1.00
H415   H     0.97241   0.84770   0.07934   0.00000  Uiso   1.00
H416   H     0.86716   0.84031   0.17626   0.00000  Uiso   1.00
H417   H     0.79379   0.81631   0.25844   0.00000  Uiso   1.00
H418   H     0.86757   0.94051   0.23541   0.00000  Uiso   1.00
H419   H     0.66695   0.94945   0.23246   0.00000  Uiso   1.00
H420   H     0.65928   0.85967   0.28389   0.00000  Uiso   1.00
H421   H     0.58110   0.81886   0.20895   0.00000  Uiso   1.00
H422   H     0.96811   1.03917   0.58031   0.00000  Uiso   1.00
H423   H     0.84588   0.97777   0.57728   0.00000  Uiso   1.00
H424   H     0.89475   0.90719   0.55804   0.00000  Uiso   1.00
H425   H     0.71697   0.80993   0.73887   0.00000  Uiso   1.00
H426   H     0.71638   0.76511   0.64964   0.00000  Uiso   1.00
H427   H     0.71339   0.87643   0.66692   0.00000  Uiso   1.00
H428   H     0.73411   0.68078   0.84171   0.00000  Uiso   1.00
H429   H     0.73306   0.67683   0.75387   0.00000  Uiso   1.00
H430   H     0.81670   0.78448   0.79693   0.00000  Uiso   1.00
H431   H     0.98687   0.87300   0.64007   0.00000  Uiso   1.00
H432   H     0.88101   0.76657   0.66993   0.00000  Uiso   1.00
H433   H     0.95059   0.86207   0.72966   0.00000  Uiso   1.00
loop_
_geom_bond_atom_site_label_1
_geom_bond_atom_site_label_2
_geom_bond_distance
_geom_bond_site_symmetry_2
_ccdc_geom_bond_type
Si1    C52     1.944   .     S
Si1    O56     1.685   .     S
Si1    C53     1.900   1_545 S
Si1    C54     1.832   1_545 S
Si2    C55     1.870   .     S
Si2    O66     1.539   .     S
Si2    O135    1.611   1_455 S
Si2    C143    1.834   1_455 S
Si3    O56     1.633   .     S
Si3    O67     1.626   .     S
Si3    C57     1.860   1_554 S
Si3    O63     1.589   1_554 S
Si4    C58     1.874   .     S
Si4    O88     1.632   .     S
Si4    C59     1.838   1_545 S
Si4    C60     1.873   1_545 S
Si5    C61     1.960   .     S
Si5    O65     1.561   .     S
Si5    C62     1.887   1_545 S
Si5    O84     1.618   1_545 S
Si6    O63     1.648   .     S
Si6    O71     1.671   .     S
Si6    O138    1.629   1_455 S
Si6    O148    1.606   1_455 S
Si7    C64     1.786   .     S
Si7    O65     1.576   .     S
Si7    O72     1.639   .     S
Si7    O90     1.644   .     S
Si8    O66     1.553   .     S
Si8    O67     1.599   .     S
Si8    C68     1.844   .     S
Si8    C96     1.873   .     S
Si9    C69     1.819   .     S
Si9    C70     1.814   .     S
Si9    O159    1.597   1_455 S
Si9    O162    1.569   1_455 S
Si10   O71     1.693   .     S
Si10   O72     1.627   .     S
Si10   O76     1.647   .     S
Si10   O109    1.703   .     S
Si11   C73     1.851   .     S
Si11   O80     1.585   .     S
Si11   C74     1.844   1_455 S
Si11   O160    1.606   1_455 S
Si12   C75     1.830   .     S
Si12   O76     1.601   .     S
Si12   O81     1.617   .     S
Si12   O108    1.579   .     S
Si13   C77     1.859   .     S
Si13   C78     1.870   .     S
Si13   C79     1.817   .     S
Si13   O120    1.581   .     S
Si14   O80     1.597   .     S
Si14   O81     1.578   .     S
Si14   C82     1.784   .     S
Si14   C125    1.871   .     S
Si15   C83     1.835   .     S
Si15   O84     1.611   .     S
Si15   O179    1.641   1_455 S
Si15   O184    1.594   1_455 S
Si16   C85     1.862   .     S
Si16   O136    1.628   .     S
Si16   O116    1.563   1_545 S
Si16   O119    1.656   1_545 S
Si17   C86     1.828   .     S
Si17   O92     1.622   .     S
Si17   C87     1.831   1_545 S
Si17   O121    1.640   1_545 S
Si18   O88     1.589   .     S
Si18   C89     1.873   .     S
Si18   O90     1.651   .     S
Si18   O101    1.615   .     S
Si19   C91     1.907   .     S
Si19   O92     1.633   .     S
Si19   O102    1.646   .     S
Si19   O137    1.620   .     S
Si20   C93     1.896   .     S
Si20   C94     1.879   .     S
Si20   C95     1.892   .     S
Si20   O100    1.559   .     S
Si21   C97     1.857   .     S
Si21   C98     1.854   .     S
Si21   C99     1.869   .     S
Si21   O112    1.590   .     S
Si22   O100    1.601   .     S
Si22   O113    1.622   .     S
Si22   O110    1.630   1_554 S
Si22   O168    1.567   1_554 S
Si23   O101    1.612   .     S
Si23   O102    1.622   .     S
Si23   C103    1.888   .     S
Si23   C104    1.870   .     S
Si24   C105    1.879   .     S
Si24   C106    1.872   .     S
Si24   C107    1.922   .     S
Si24   O108    1.633   .     S
Si25   O109    1.678   .     S
Si25   O110    1.585   .     S
Si25   C111    1.879   .     S
Si25   O123    1.579   .     S
Si26   O112    1.615   .     S
Si26   O113    1.561   .     S
Si26   O118    1.593   .     S
Si26   O175    1.595   .     S
Si27   C114    1.814   .     S
Si27   C115    1.863   .     S
Si27   O116    1.621   .     S
Si27   C117    1.871   .     S
Si28   O118    1.624   .     S
Si28   O119    1.599   .     S
Si28   O127    1.595   1_554 S
Si28   O188    1.647   1_554 S
Si29   O120    1.577   .     S
Si29   O121    1.579   .     S
Si29   C122    1.868   .     S
Si29   C130    1.854   .     S
Si30   O123    1.614   .     S
Si30   C124    1.898   .     S
Si30   O132    1.607   .     S
Si30   O185    1.638   .     S
Si31   C126    1.903   .     S
Si31   O127    1.661   .     S
Si31   C128    1.841   .     S
Si31   C129    1.803   .     S
Si32   C131    1.741   .     S
Si32   O132    1.634   .     S
Si32   C133    1.870   .     S
Si32   C134    1.835   .     S
Si33   O135    1.571   .     S
Si33   O139    1.647   .     S
Si33   O177    1.600   1_545 S
Si33   O181    1.606   1_545 S
Si34   O136    1.616   .     S
Si34   O137    1.642   .     S
Si34   O145    1.617   .     S
Si34   O157    1.632   .     S
Si35   O139    1.646   .     S
Si35   O158    1.628   .     S
Si35   O138    1.626   1_554 S
Si35   O150    1.586   1_554 S
Si36   C140    1.840   .     S
Si36   O146    1.571   .     S
Si36   C141    1.850   1_545 S
Si36   C142    1.948   1_545 S
Si37   C144    1.820   .     S
Si37   O145    1.578   .     S
Si37   O146    1.648   .     S
Si37   C147    1.834   .     S
Si38   O148    1.640   .     S
Si38   O155    1.613   .     S
Si38   O187    1.637   1_545 S
Si38   O193    1.601   1_545 S
Si39   C149    1.932   .     S
Si39   O150    1.601   .     S
Si39   C151    1.821   .     S
Si39   C152    1.875   .     S
Si40   C153    1.763   .     S
Si40   C154    1.791   .     S
Si40   O155    1.642   .     S
Si40   C156    1.866   .     S
Si41   O157    1.643   .     S
Si41   O158    1.634   .     S
Si41   O159    1.602   .     S
Si41   O161    1.650   .     S
Si42   O161    1.701   .     S
Si42   O173    1.632   .     S
Si42   O160    1.611   1_554 S
Si42   O167    1.584   1_554 S
Si43   O162    1.591   .     S
Si43   C163    1.888   .     S
Si43   C164    1.861   .     S
Si43   C165    1.856   .     S
Si44   C166    1.889   .     S
Si44   O167    1.612   .     S
Si44   O168    1.577   .     S
Si44   O182    1.533   .     S
Si45   C169    1.872   .     S
Si45   C170    1.848   .     S
Si45   C171    1.889   .     S
Si45   O183    1.617   .     S
Si46   C172    1.842   .     S
Si46   O173    1.605   .     S
Si46   C174    1.826   .     S
Si46   O180    1.616   .     S
Si47   O175    1.602   .     S
Si47   C176    1.901   .     S
Si47   O177    1.521   .     S
Si47   C178    1.829   .     S
Si48   O180    1.596   .     S
Si48   O181    1.621   .     S
Si48   O179    1.635   1_554 S
Si48   O186    1.565   1_554 S
Si49   O182    1.565   .     S
Si49   O183    1.590   .     S
Si49   O184    1.591   .     S
Si49   C191    1.841   .     S
Si50   O185    1.627   .     S
Si50   O186    1.583   .     S
Si50   O187    1.656   .     S
Si50   O188    1.652   .     S
Si51   C189    1.832   .     S
Si51   C190    1.829   .     S
Si51   C192    1.888   .     S
Si51   O193    1.619   .     S
C52    H194    1.079   .     S
C52    H195    1.139   .     S
C52    H196    1.080   .     S
C53    H197    1.116   .     S
C53    H198    1.148   .     S
C53    H199    1.101   .     S
C53    Si1     1.900   1_565 S
C54    H200    1.032   .     S
C54    H201    1.116   .     S
C54    H202    1.113   .     S
C54    Si1     1.832   1_565 S
C55    H203    1.114   .     S
C55    H204    1.134   .     S
C55    H205    1.107   .     S
C57    H206    1.092   .     S
C57    H207    1.089   .     S
C57    H208    1.096   .     S
C57    Si3     1.860   1_556 S
C58    H209    1.133   .     S
C58    H210    1.108   .     S
C58    H211    1.121   .     S
C59    H212    1.133   .     S
C59    H213    1.125   .     S
C59    H214    1.144   .     S
C59    Si4     1.838   1_565 S
C60    H215    1.099   .     S
C60    H216    1.126   .     S
C60    H217    1.124   .     S
C60    Si4     1.873   1_565 S
C61    H218    1.095   .     S
C61    H219    1.119   .     S
C61    H220    1.118   .     S
C62    H221    1.099   .     S
C62    H222    1.134   .     S
C62    H223    1.024   .     S
C62    Si5     1.887   1_565 S
O63    Si3     1.589   1_556 S
C64    H224    1.081   .     S
C64    H225    1.047   .     S
C64    H226    1.136   .     S
C68    H227    1.121   .     S
C68    H228    1.102   .     S
C68    H229    1.106   .     S
C69    H230    1.139   .     S
C69    H231    1.084   .     S
C69    H232    1.085   .     S
C70    H233    1.090   .     S
C70    H234    1.093   .     S
C70    H235    1.107   .     S
C73    H236    1.052   .     S
C73    H237    1.133   .     S
C73    H238    1.086   .     S
C74    H239    1.128   .     S
C74    H240    1.133   .     S
C74    H241    1.122   .     S
C74    Si11    1.844   1_655 S
C75    H242    1.134   .     S
C75    H243    1.133   .     S
C75    H244    1.093   .     S
C77    H245    1.112   .     S
C77    H246    1.098   .     S
C77    H247    1.129   .     S
C78    H248    1.069   .     S
C78    H249    1.099   .     S
C78    H250    1.116   .     S
C79    H251    1.175   .     S
C79    H252    1.069   .     S
C79    H253    1.141   .     S
C82    H254    1.110   .     S
C82    H255    1.114   .     S
C82    H256    1.091   .     S
C83    H257    1.149   .     S
C83    H258    1.091   .     S
C83    H259    1.131   .     S
O84    Si5     1.618   1_565 S
C85    H260    1.076   .     S
C85    H261    1.044   .     S
C85    H262    1.061   .     S
C86    H263    1.115   .     S
C86    H264    1.136   .     S
C86    H265    1.109   .     S
C87    H266    1.104   .     S
C87    H267    1.092   .     S
C87    H268    1.102   .     S
C87    Si17    1.831   1_565 S
C89    H269    1.097   .     S
C89    H270    1.058   .     S
C89    H271    1.152   .     S
C91    H272    1.070   .     S
C91    H273    1.112   .     S
C91    H274    1.065   .     S
C93    H275    1.091   .     S
C93    H276    1.107   .     S
C93    H277    1.084   .     S
C94    H278    1.133   .     S
C94    H279    1.109   .     S
C94    H280    1.079   .     S
C95    H281    1.080   .     S
C95    H282    1.136   .     S
C95    H283    1.110   .     S
C96    H284    1.103   .     S
C96    H285    1.070   .     S
C96    H286    1.169   .     S
C97    H287    1.143   .     S
C97    H288    1.054   .     S
C97    H289    1.114   .     S
C98    H290    1.045   .     S
C98    H291    1.121   .     S
C98    H292    1.067   .     S
C99    H293    1.101   .     S
C99    H294    1.064   .     S
C99    H295    1.076   .     S
C103   H296    1.144   .     S
C103   H297    1.153   .     S
C103   H298    1.134   .     S
C104   H299    1.101   .     S
C104   H300    1.116   .     S
C104   H301    1.060   .     S
C105   H302    1.142   .     S
C105   H303    1.113   .     S
C105   H304    1.097   .     S
C106   H305    1.084   .     S
C106   H306    1.114   .     S
C106   H307    1.109   .     S
C107   H308    1.074   .     S
C107   H309    1.128   .     S
C107   H310    1.139   .     S
O110   Si22    1.630   1_556 S
C111   H311    1.103   .     S
C111   H312    1.043   .     S
C111   H313    1.106   .     S
C114   H314    1.116   .     S
C114   H315    1.158   .     S
C114   H316    1.132   .     S
C115   H317    1.136   .     S
C115   H318    1.095   .     S
C115   H319    1.135   .     S
O116   Si16    1.563   1_565 S
C117   H320    1.064   .     S
C117   H321    1.071   .     S
C117   H322    1.056   .     S
O119   Si16    1.656   1_565 S
O121   Si17    1.640   1_565 S
C122   H323    1.115   .     S
C122   H324    1.124   .     S
C122   H325    1.134   .     S
C124   H326    1.120   .     S
C124   H327    1.138   .     S
C124   H328    1.135   .     S
C125   H329    1.116   .     S
C125   H330    1.093   .     S
C125   H331    1.155   .     S
C126   H332    1.132   .     S
C126   H333    1.094   .     S
C126   H334    1.090   .     S
O127   Si28    1.595   1_556 S
C128   H335    1.106   .     S
C128   H336    1.091   .     S
C128   H337    1.105   .     S
C129   H338    1.094   .     S
C129   H339    1.123   .     S
C129   H340    1.085   .     S
C130   H341    1.119   .     S
C130   H342    1.130   .     S
C130   H343    1.119   .     S
C131   H344    1.159   .     S
C131   H345    1.073   .     S
C131   H346    1.127   .     S
C133   H347    1.088   .     S
C133   H348    1.048   .     S
C133   H349    1.129   .     S
C134   H350    1.071   .     S
C134   H351    1.088   .     S
C134   H352    1.128   .     S
O135   Si2     1.611   1_655 S
O138   Si6     1.629   1_655 S
O138   Si35    1.626   1_556 S
C140   H353    1.163   .     S
C140   H354    1.138   .     S
C140   H355    1.081   .     S
C141   H356    1.097   .     S
C141   H357    1.068   .     S
C141   H358    1.114   .     S
C141   Si36    1.850   1_565 S
C142   H359    1.081   .     S
C142   H360    1.113   .     S
C142   H361    1.111   .     S
C142   Si36    1.948   1_565 S
C143   H362    1.063   .     S
C143   H363    1.079   .     S
C143   H364    1.121   .     S
C143   Si2     1.834   1_655 S
C144   H365    1.120   .     S
C144   H366    1.090   .     S
C144   H367    1.170   .     S
C147   H368    1.062   .     S
C147   H369    1.097   .     S
C147   H370    1.104   .     S
O148   Si6     1.606   1_655 S
C149   H371    1.139   .     S
C149   H372    1.104   .     S
C149   H373    1.082   .     S
O150   Si35    1.586   1_556 S
C151   H374    1.097   .     S
C151   H375    1.098   .     S
C151   H376    1.112   .     S
C152   H377    1.145   .     S
C152   H378    1.154   .     S
C152   H379    1.137   .     S
C153   H380    1.146   .     S
C153   H381    1.143   .     S
C153   H382    1.090   .     S
C154   H383    1.092   .     S
C154   H384    1.141   .     S
C154   H385    1.094   .     S
C156   H386    1.095   .     S
C156   H387    1.125   .     S
C156   H388    1.086   .     S
O159   Si9     1.597   1_655 S
O160   Si11    1.606   1_655 S
O160   Si42    1.611   1_556 S
O162   Si9     1.569   1_655 S
C163   H389    1.168   .     S
C163   H390    1.129   .     S
C163   H391    1.131   .     S
C164   H392    1.089   .     S
C164   H393    1.114   .     S
C164   H394    1.151   .     S
C165   H395    1.075   .     S
C165   H396    1.109   .     S
C165   H397    1.131   .     S
C166   H398    1.064   .     S
C166   H399    1.072   .     S
C166   H400    1.111   .     S
O167   Si42    1.584   1_556 S
O168   Si22    1.567   1_556 S
C169   H401    1.071   .     S
C169   H402    1.081   .     S
C169   H403    1.099   .     S
C170   H404    1.087   .     S
C170   H405    1.086   .     S
C170   H406    1.084   .     S
C171   H407    1.095   .     S
C171   H408    1.156   .     S
C171   H409    1.081   .     S
C172   H410    1.088   .     S
C172   H411    1.139   .     S
C172   H412    1.061   .     S
C174   H413    1.050   .     S
C174   H414    1.071   .     S
C174   H415    1.076   .     S
C176   H416    1.085   .     S
C176   H417    1.133   .     S
C176   H418    1.127   .     S
O177   Si33    1.600   1_565 S
C178   H419    1.118   .     S
C178   H420    1.130   .     S
C178   H421    1.122   .     S
O179   Si15    1.641   1_655 S
O179   Si48    1.635   1_556 S
O181   Si33    1.606   1_565 S
O184   Si15    1.594   1_655 S
O186   Si48    1.565   1_556 S
O187   Si38    1.637   1_565 S
O188   Si28    1.647   1_556 S
C189   H422    1.127   .     S
C189   H423    1.133   .     S
C189   H424    1.048   .     S
C190   H425    1.108   .     S
C190   H426    1.099   .     S
C190   H427    1.110   .     S
C191   H428    1.063   .     S
C191   H429    1.105   .     S
C191   H430    1.120   .     S
C192   H431    1.087   .     S
C192   H432    1.120   .     S
C192   H433    1.040   .     S
O193   Si38    1.601   1_565 S
