data_333-13-11-12-15-30-8
_audit_creation_date              2025-03-07
_audit_creation_method            'Materials Studio'
_symmetry_space_group_name_H-M    'P1'
_symmetry_Int_Tables_number       1
_symmetry_cell_setting            triclinic
loop_
_symmetry_equiv_pos_as_xyz
  x,y,z
_cell_length_a                    16.3071
_cell_length_b                    16.5546
_cell_length_c                    19.0119
_cell_angle_alpha                 90.6109
_cell_angle_beta                  98.1513
_cell_angle_gamma                 120.4511
loop_
_atom_site_label
_atom_site_type_symbol
_atom_site_fract_x
_atom_site_fract_y
_atom_site_fract_z
_atom_site_U_iso_or_equiv
_atom_site_adp_type
_atom_site_occupancy
Si1    Si    0.20347   0.02858   0.04747   0.00000  Uiso   1.00
Si2    Si    0.19458   0.19748  -0.02340   0.00000  Uiso   1.00
Si3    Si    0.24731   0.10571   0.29858   0.00000  Uiso   1.00
Si4    Si    0.07326  -0.02134   0.74475   0.00000  Uiso   1.00
Si5    Si    0.00218   0.17028   0.88967   0.00000  Uiso   1.00
Si6    Si    0.10351   0.16471   0.69827   0.00000  Uiso   1.00
Si7    Si    0.21929   0.35079   0.08612   0.00000  Uiso   1.00
Si8    Si    0.41291   0.52635   0.48545   0.00000  Uiso   1.00
Si9    Si    0.04586   0.45944   0.53571   0.00000  Uiso   1.00
Si10   Si    0.28764   0.48250   0.33668   0.00000  Uiso   1.00
Si11   Si    0.13110   0.32231   0.79777   0.00000  Uiso   1.00
Si12   Si   -0.03263   0.50522   0.89442   0.00000  Uiso   1.00
Si13   Si    0.14060   0.47082   0.69941   0.00000  Uiso   1.00
Si14   Si    0.16832   0.86004  -0.05347   0.00000  Uiso   1.00
Si15   Si    0.16483   0.54127   0.41627   0.00000  Uiso   1.00
Si16   Si    0.18927   0.66926   0.75617   0.00000  Uiso   1.00
Si17   Si   -0.02122   0.81880   0.83929   0.00000  Uiso   1.00
Si18   Si    0.51760  -0.01031   0.10429   0.00000  Uiso   1.00
Si19   Si    0.36730   0.15137   0.17371   0.00000  Uiso   1.00
Si20   Si    0.51728   0.16396   0.02330   0.00000  Uiso   1.00
Si21   Si    0.19774   0.16230   0.56835   0.00000  Uiso   1.00
Si22   Si    0.51946   0.13035   0.26798   0.00000  Uiso   1.00
Si23   Si    0.45831  -0.01880   0.81795   0.00000  Uiso   1.00
Si24   Si    0.43644   0.12579   0.74067   0.00000  Uiso   1.00
Si25   Si    0.50951   0.32424   0.11282   0.00000  Uiso   1.00
Si26   Si    0.37647   0.51860   0.19517   0.00000  Uiso   1.00
Si27   Si    0.48381   0.48973   0.02235   0.00000  Uiso   1.00
Si28   Si    0.54349   0.50048   0.28319   0.00000  Uiso   1.00
Si29   Si    0.33213   0.46202   0.89172   0.00000  Uiso   1.00
Si30   Si    0.49686   0.66781   0.10372   0.00000  Uiso   1.00
Si31   Si    0.33883   0.81699   0.15008   0.00000  Uiso   1.00
Si32   Si    0.50420   0.82428  -0.00022   0.00000  Uiso   1.00
Si33   Si    0.58753   0.82311   0.36557   0.00000  Uiso   1.00
Si34   Si    0.32342   0.81094   0.88592   0.00000  Uiso   1.00
Si35   Si    0.77456  -0.00763   0.13619   0.00000  Uiso   1.00
Si36   Si    0.68171   0.12518   0.22244   0.00000  Uiso   1.00
Si37   Si    0.67560   0.20455   0.54775   0.00000  Uiso   1.00
Si38   Si    0.81728   0.17153   0.36884   0.00000  Uiso   1.00
Si39   Si    0.79882   0.01000   0.81848   0.00000  Uiso   1.00
Si40   Si    0.84576   0.30021   0.17441   0.00000  Uiso   1.00
Si41   Si    0.67886   0.44939   0.23700   0.00000  Uiso   1.00
Si42   Si    0.82768   0.33052   0.45707   0.00000  Uiso   1.00
Si43   Si    0.74885   0.44840   0.39508   0.00000  Uiso   1.00
Si44   Si    0.84947   0.44127   0.74397   0.00000  Uiso   1.00
Si45   Si    0.63404   0.49405   0.93865   0.00000  Uiso   1.00
Si46   Si    0.86137   0.61596   0.20190   0.00000  Uiso   1.00
Si47   Si    0.65492   0.82885   0.22261   0.00000  Uiso   1.00
Si48   Si    0.85307   0.83611  -0.06008   0.00000  Uiso   1.00
Si49   Si    0.85413   0.87714   0.30909   0.00000  Uiso   1.00
Si50   Si    0.66814   0.85345   0.90225   0.00000  Uiso   1.00
Si51   Si    0.72067   0.86634   0.67923   0.00000  Uiso   1.00
C52    C     0.10926   0.94483   0.09931   0.00000  Uiso   1.00
O53    O     0.18042   0.10864   0.02148   0.00000  Uiso   1.00
C54    C     0.27747   0.21610   0.91452   0.00000  Uiso   1.00
C55    C     0.13722   0.11085   0.27317   0.00000  Uiso   1.00
C56    C     0.22046  -0.01489   0.31349   0.00000  Uiso   1.00
C57    C     0.19360  -0.00743   0.76202   0.00000  Uiso   1.00
C58    C     0.00835   0.90298   0.66095   0.00000  Uiso   1.00
O59    O     0.09163   0.16248   0.92498   0.00000  Uiso   1.00
C60    C     0.96119   0.21068   0.96224   0.00000  Uiso   1.00
C61    C    -0.01159   0.15232   0.64636   0.00000  Uiso   1.00
O62    O     0.07490   0.07543   0.74332   0.00000  Uiso   1.00
C63    C     0.13951   0.26227   0.13600   0.00000  Uiso   1.00
O64    O     0.23485   0.29245   0.02849   0.00000  Uiso   1.00
C65    C     0.16240   0.41798   0.04767   0.00000  Uiso   1.00
C66    C     0.30325   0.44415   0.52518   0.00000  Uiso   1.00
C67    C     0.30646   0.16717   0.39023   0.00000  Uiso   1.00
C68    C     0.50440   0.48561   0.50449   0.00000  Uiso   1.00
C69    C     0.45883   0.64447   0.53610   0.00000  Uiso   1.00
C70    C     1.03885   0.56738   0.54577   0.00000  Uiso   1.00
C71    C     0.22577   0.35387   0.32812   0.00000  Uiso   1.00
O72    O     0.37493   0.52278   0.40366   0.00000  Uiso   1.00
O73    O     0.03803   0.24813   0.83302   0.00000  Uiso   1.00
O74    O     0.15678   0.26116   0.75051   0.00000  Uiso   1.00
C75    C     0.10359   0.56406   0.92826   0.00000  Uiso   1.00
C76    C     0.91054   0.38713   0.92199   0.00000  Uiso   1.00
O77    O     0.08221   0.44137   0.61674   0.00000  Uiso   1.00
O78    O     0.10216   0.38300   0.74817   0.00000  Uiso   1.00
C79    C     0.26715   0.51501   0.69079   0.00000  Uiso   1.00
C80    C     0.10330   0.77517   0.01397   0.00000  Uiso   1.00
O81    O     0.20807   0.96641  -0.01586   0.00000  Uiso   1.00
O82    O     0.11492   0.47076   0.47749   0.00000  Uiso   1.00
O83    O     0.21225   0.50317   0.36231   0.00000  Uiso   1.00
C84    C     0.06859   0.54994   0.35617   0.00000  Uiso   1.00
C85    C     0.25652   0.66421   0.46303   0.00000  Uiso   1.00
C86    C    -0.08602   0.56427   0.93238   0.00000  Uiso   1.00
C87    C     0.09520   0.69996   0.74858   0.00000  Uiso   1.00
O88    O     0.13680   0.55475   0.73892   0.00000  Uiso   1.00
C89    C     0.27109   0.72938   0.69231   0.00000  Uiso   1.00
O90    O     0.07604   0.82362   0.88188   0.00000  Uiso   1.00
O91    O     0.01054   0.91439   0.80230   0.00000  Uiso   1.00
C92    C     0.91481   0.72192   0.76955   0.00000  Uiso   1.00
O93    O     0.30098   0.07541   0.10464   0.00000  Uiso   1.00
O94    O     0.31441   0.15092   0.24057   0.00000  Uiso   1.00
O95    O     0.51222   0.08385   0.07613   0.00000  Uiso   1.00
C96    C     0.41462   0.09982   0.94799   0.00000  Uiso   1.00
C97    C     0.62992   0.21282   0.98409   0.00000  Uiso   1.00
C98    C     0.11922   0.18997   0.50255   0.00000  Uiso   1.00
C99    C     0.33045   0.24577   0.57836   0.00000  Uiso   1.00
O100   O     0.17205   0.16899   0.64439   0.00000  Uiso   1.00
O101   O     0.44600   0.12648   0.20235   0.00000  Uiso   1.00
C102   C     0.46479   0.01340   0.29816   0.00000  Uiso   1.00
C103   C     0.53764   0.21126   0.34099   0.00000  Uiso   1.00
C104   C     0.56527   0.01729   0.88539   0.00000  Uiso   1.00
C105   C     0.49573   0.95374   0.73815   0.00000  Uiso   1.00
C106   C     0.17038   0.03959   0.53946   0.00000  Uiso   1.00
C107   C     0.37906   0.05830   0.65169   0.00000  Uiso   1.00
O108   O     0.42396   0.05433   0.79877   0.00000  Uiso   1.00
C109   C     0.39539   0.20108   0.76171   0.00000  Uiso   1.00
O110   O     0.42302   0.25496   0.15036   0.00000  Uiso   1.00
O111   O     0.52521   0.25679   0.05793   0.00000  Uiso   1.00
O112   O     0.31286   0.41988   0.14368   0.00000  Uiso   1.00
O113   O     0.31889   0.51774   0.25935   0.00000  Uiso   1.00
O114   O     0.49296   0.41083   0.07960   0.00000  Uiso   1.00
O115   O     0.47476   0.52262   0.22523   0.00000  Uiso   1.00
C116   C     0.46010   0.37435   0.30829   0.00000  Uiso   1.00
C117   C     0.59034   0.59316   0.35136   0.00000  Uiso   1.00
O118   O     0.22144   0.38748   0.86404   0.00000  Uiso   1.00
O119   O     0.37826   0.44469   0.96541   0.00000  Uiso   1.00
C120   C     0.39293   0.45009   0.82119   0.00000  Uiso   1.00
C121   C     0.36084   0.58901   0.89489   0.00000  Uiso   1.00
O122   O     0.40591   0.60528   0.14459   0.00000  Uiso   1.00
O123   O     0.51318   0.58987   0.06140   0.00000  Uiso   1.00
C124   C     0.27815   0.72231   0.07373   0.00000  Uiso   1.00
O125   O     0.41568   0.92050   0.12990   0.00000  Uiso   1.00
C126   C     0.24236   0.81278   0.19005   0.00000  Uiso   1.00
O127   O     0.47886   0.73468   0.05019   0.00000  Uiso   1.00
O128   O     0.53660   0.92690   0.04544   0.00000  Uiso   1.00
C129   C     0.40065   0.77453   0.21316   0.00000  Uiso   1.00
C130   C     0.47857   0.71321   0.35419   0.00000  Uiso   1.00
C131   C     0.67571   0.81523   0.43469   0.00000  Uiso   1.00
C132   C     0.55644   0.90538   0.40675   0.00000  Uiso   1.00
O133   O     0.25501   0.71525   0.83498   0.00000  Uiso   1.00
O134   O     0.41073   0.80403   0.93428   0.00000  Uiso   1.00
O135   O     0.37424   0.88818   0.83388   0.00000  Uiso   1.00
O136   O     0.25666   0.84292   0.92656   0.00000  Uiso   1.00
C137   C     0.75362   0.05560   0.05854   0.00000  Uiso   1.00
C138   C     0.89020   0.08878   0.19475   0.00000  Uiso   1.00
O139   O     0.60369   0.03013   0.17200   0.00000  Uiso   1.00
O140   O     0.62181   0.16677   0.24394   0.00000  Uiso   1.00
C141   C     0.57787   0.09240   0.49245   0.00000  Uiso   1.00
C142   C     0.74308   0.16197   0.60799   0.00000  Uiso   1.00
C143   C     0.61228   0.25328   0.58547   0.00000  Uiso   1.00
C144   C     0.57103   0.20586   0.74573   0.00000  Uiso   1.00
C145   C     0.95411   0.23153   0.36165   0.00000  Uiso   1.00
O146   O     0.74227   0.11597   0.29350   0.00000  Uiso   1.00
C147   C     0.79260   0.08947   0.44694   0.00000  Uiso   1.00
C148   C     0.77146   0.10054   0.78583   0.00000  Uiso   1.00
O149   O     0.91185   0.07022   0.84955   0.00000  Uiso   1.00
O150   O     0.75358   0.19673   0.17616   0.00000  Uiso   1.00
C151   C     0.95872   0.30122   0.17018   0.00000  Uiso   1.00
C152   C     0.82833   0.35461   0.09321   0.00000  Uiso   1.00
C153   C     0.86450   0.37443   0.25345   0.00000  Uiso   1.00
O154   O     0.60815   0.37088   0.17254   0.00000  Uiso   1.00
O155   O     0.62896   0.50867   0.24826   0.00000  Uiso   1.00
O156   O     0.74735   0.28408   0.50486   0.00000  Uiso   1.00
O157   O     0.80262   0.25251   0.39619   0.00000  Uiso   1.00
O158   O     0.93673   0.37594   0.50179   0.00000  Uiso   1.00
C159   C     0.82287   0.57670   0.40919   0.00000  Uiso   1.00
O160   O     0.69617   0.41620   0.31411   0.00000  Uiso   1.00
O161   O     0.81542   0.40734   0.41377   0.00000  Uiso   1.00
C162   C     0.66299   0.41821   0.46045   0.00000  Uiso   1.00
C163   C     0.75015   0.46504   0.74832   0.00000  Uiso   1.00
C164   C     0.80564   0.31679   0.74568   0.00000  Uiso   1.00
C165   C     0.88667   0.47562   0.65500   0.00000  Uiso   1.00
O166   O     0.93580   0.49738   0.81009   0.00000  Uiso   1.00
C167   C     0.57592   0.37812   0.88610   0.00000  Uiso   1.00
C168   C     0.71945   0.49730   1.01583   0.00000  Uiso   1.00
C169   C     0.68838   0.58963   0.87807   0.00000  Uiso   1.00
O170   O     0.56206   0.51429   0.97126   0.00000  Uiso   1.00
O171   O     0.78470   0.51406   0.21918   0.00000  Uiso   1.00
C172   C     0.93548   0.61449   0.13387   0.00000  Uiso   1.00
C173   C     0.95575   0.68447   0.28192   0.00000  Uiso   1.00
O174   O     0.58826   0.73349   0.16587   0.00000  Uiso   1.00
O175   O     0.68950   0.92240   0.17805   0.00000  Uiso   1.00
O176   O     0.60852   0.84207   0.28684   0.00000  Uiso   1.00
O177   O     0.89816   0.80191   0.88585   0.00000  Uiso   1.00
C178   C     0.78658   0.66756   0.17932   0.00000  Uiso   1.00
C179   C     0.84664   0.77121   0.01809   0.00000  Uiso   1.00
C180   C     0.94594   0.96195  -0.03501   0.00000  Uiso   1.00
C181   C     0.80842   0.91760   0.09723   0.00000  Uiso   1.00
C182   C     0.95598   0.89614   0.26190   0.00000  Uiso   1.00
O183   O     0.75197   0.83291   0.25553   0.00000  Uiso   1.00
C184   C     0.85727   0.80318   0.38311   0.00000  Uiso   1.00
C185   C     0.88510   0.98537   0.35342   0.00000  Uiso   1.00
C186   C     0.56836   0.78007   0.82647   0.00000  Uiso   1.00
O187   O     0.74406   0.81706   0.91556   0.00000  Uiso   1.00
O188   O     0.73423   0.95348   0.87762   0.00000  Uiso   1.00
O189   O     0.60257   0.84608   0.96504   0.00000  Uiso   1.00
C190   C     0.79987   0.90582   0.61289   0.00000  Uiso   1.00
C191   C     0.60781   0.86482   0.63640   0.00000  Uiso   1.00
C192   C     0.68833   0.74883   0.70587   0.00000  Uiso   1.00
O193   O     0.77555   0.93872   0.75321   0.00000  Uiso   1.00
H194   H     0.05852   0.88924   0.06531   0.00000  Uiso   1.00
H195   H     0.08470   0.98944   0.12113   0.00000  Uiso   1.00
H196   H     0.13657   0.91923   0.14610   0.00000  Uiso   1.00
H197   H     0.34709   0.23877   0.94755   0.00000  Uiso   1.00
H198   H     0.27536   0.26357   0.87617   0.00000  Uiso   1.00
H199   H     0.24980   0.14641   0.88601   0.00000  Uiso   1.00
H200   H     0.09967   0.08645   0.21959   0.00000  Uiso   1.00
H201   H     0.16547   0.19085   0.27719   0.00000  Uiso   1.00
H202   H     0.08734   0.08252   0.31202   0.00000  Uiso   1.00
H203   H     0.17216  -0.04531   0.35314   0.00000  Uiso   1.00
H204   H     0.29242  -0.00544   0.33312   0.00000  Uiso   1.00
H205   H     0.19926  -0.05178   0.26002   0.00000  Uiso   1.00
H206   H     0.21831   0.01216   0.71069   0.00000  Uiso   1.00
H207   H     0.18571  -0.07614   0.77537   0.00000  Uiso   1.00
H208   H     0.24003   0.04243   0.81003   0.00000  Uiso   1.00
H209   H     0.00779   0.94379   0.61347   0.00000  Uiso   1.00
H210   H    -0.06704   0.84738   0.65493   0.00000  Uiso   1.00
H211   H     0.04880   0.87053   0.64881   0.00000  Uiso   1.00
H212   H     0.88314   0.19151   0.94954   0.00000  Uiso   1.00
H213   H     1.00531   0.28522   0.96671   0.00000  Uiso   1.00
H214   H     0.97190   0.18131   1.00925   0.00000  Uiso   1.00
H215   H     0.00871   0.21992   0.62086   0.00000  Uiso   1.00
H216   H    -0.06105   0.13689   0.68548   0.00000  Uiso   1.00
H217   H    -0.04702   0.09485   0.60377   0.00000  Uiso   1.00
H218   H     0.17815   0.22535   0.16195   0.00000  Uiso   1.00
H219   H     0.07817   0.20977   0.09757   0.00000  Uiso   1.00
H220   H     0.11816   0.29283   0.17889   0.00000  Uiso   1.00
H221   H     0.10391   0.40760   0.07214   0.00000  Uiso   1.00
H222   H     0.14436   0.39720  -0.01018   0.00000  Uiso   1.00
H223   H     0.21221   0.49457   0.06412   0.00000  Uiso   1.00
H224   H     0.32954   0.43385   0.58129   0.00000  Uiso   1.00
H225   H     0.26071   0.37785   0.49046   0.00000  Uiso   1.00
H226   H     0.25926   0.47676   0.52802   0.00000  Uiso   1.00
H227   H     0.24839   0.13697   0.41984   0.00000  Uiso   1.00
H228   H     0.33365   0.24268   0.39514   0.00000  Uiso   1.00
H229   H     0.35681   0.14670   0.41369   0.00000  Uiso   1.00
H230   H     0.50961   0.46617   0.56174   0.00000  Uiso   1.00
H231   H     0.57546   0.53991   0.48984   0.00000  Uiso   1.00
H232   H     0.47382   0.42131   0.46857   0.00000  Uiso   1.00
H233   H     0.42920   0.63036   0.58618   0.00000  Uiso   1.00
H234   H     0.44610   0.69293   0.50513   0.00000  Uiso   1.00
H235   H     0.54049   0.67606   0.54468   0.00000  Uiso   1.00
H236   H     0.95999   0.54844   0.54148   0.00000  Uiso   1.00
H237   H     1.06252   0.60129   0.49727   0.00000  Uiso   1.00
H238   H     1.08349   0.61197   0.59552   0.00000  Uiso   1.00
H239   H     0.25601   0.32476   0.36768   0.00000  Uiso   1.00
H240   H     0.24764   0.34072   0.27950   0.00000  Uiso   1.00
H241   H     0.14531   0.31935   0.32898   0.00000  Uiso   1.00
H242   H     0.13415   0.63329   0.91213   0.00000  Uiso   1.00
H243   H     0.13945   0.53538   0.89777   0.00000  Uiso   1.00
H244   H     0.12101   0.56179   0.98492   0.00000  Uiso   1.00
H245   H     0.91284   0.34139   0.88433   0.00000  Uiso   1.00
H246   H     0.83585   0.37000   0.91839   0.00000  Uiso   1.00
H247   H     0.94555   0.39030   0.98057   0.00000  Uiso   1.00
H248   H     0.28371   0.54628   0.63793   0.00000  Uiso   1.00
H249   H     0.28226   0.45638   0.68477   0.00000  Uiso   1.00
H250   H     0.31491   0.55829   0.73838   0.00000  Uiso   1.00
H251   H     0.09570   0.70420  -0.00487   0.00000  Uiso   1.00
H252   H     0.02619   0.75957   0.00762   0.00000  Uiso   1.00
H253   H     0.14569   0.80402   0.06711   0.00000  Uiso   1.00
H254   H     0.04763   0.49979   0.30766   0.00000  Uiso   1.00
H255   H     0.09528   0.62245   0.34196   0.00000  Uiso   1.00
H256   H     0.00587   0.52738   0.38222   0.00000  Uiso   1.00
H257   H     0.30912   0.70781   0.42936   0.00000  Uiso   1.00
H258   H     0.29663   0.65159   0.51233   0.00000  Uiso   1.00
H259   H     0.21752   0.69995   0.48130   0.00000  Uiso   1.00
H260   H    -0.16411   0.51822   0.91252   0.00000  Uiso   1.00
H261   H    -0.06282   0.63259   0.91478   0.00000  Uiso   1.00
H262   H    -0.07043   0.56437   0.99290   0.00000  Uiso   1.00
H263   H     0.03041   0.65516   0.70737   0.00000  Uiso   1.00
H264   H     0.12242   0.77371   0.73824   0.00000  Uiso   1.00
H265   H     0.07411   0.69765   0.80121   0.00000  Uiso   1.00
H266   H     0.24776   0.77750   0.66526   0.00000  Uiso   1.00
H267   H     0.27002   0.68074   0.65419   0.00000  Uiso   1.00
H268   H     0.34796   0.76978   0.71831   0.00000  Uiso   1.00
H269   H     0.95398   0.74128   0.72130   0.00000  Uiso   1.00
H270   H     0.83654   0.69625   0.75273   0.00000  Uiso   1.00
H271   H     0.91541   0.66396   0.78866   0.00000  Uiso   1.00
H272   H     0.39089   0.02442   0.93895   0.00000  Uiso   1.00
H273   H     0.43829   0.13880   0.89973   0.00000  Uiso   1.00
H274   H     0.35221   0.10822   0.96051   0.00000  Uiso   1.00
H275   H     0.67402   0.28994   0.98696   0.00000  Uiso   1.00
H276   H     0.60212   0.19301   0.92569   0.00000  Uiso   1.00
H277   H     0.66541   0.17523   1.00217   0.00000  Uiso   1.00
H278   H     0.04083   0.13093   0.50781   0.00000  Uiso   1.00
H279   H     0.12990   0.18337   0.44463   0.00000  Uiso   1.00
H280   H     0.12503   0.25666   0.52030   0.00000  Uiso   1.00
H281   H     0.35396   0.31777   0.59787   0.00000  Uiso   1.00
H282   H     0.34617   0.24183   0.52466   0.00000  Uiso   1.00
H283   H     0.36670   0.21796   0.61377   0.00000  Uiso   1.00
H284   H     0.39010  -0.02982   0.26342   0.00000  Uiso   1.00
H285   H     0.44878   0.00845   0.35666   0.00000  Uiso   1.00
H286   H     0.51553  -0.01377   0.29541   0.00000  Uiso   1.00
H287   H     0.46772   0.18750   0.35654   0.00000  Uiso   1.00
H288   H     0.56160   0.27831   0.31896   0.00000  Uiso   1.00
H289   H     0.58972   0.21372   0.38913   0.00000  Uiso   1.00
H290   H     0.62142   0.08600   0.87474   0.00000  Uiso   1.00
H291   H     0.58315  -0.03725   0.88807   0.00000  Uiso   1.00
H292   H     0.54905   0.03300   0.93727   0.00000  Uiso   1.00
H293   H     0.42430   0.91809   0.69564   0.00000  Uiso   1.00
H294   H     0.52928   0.91275   0.75513   0.00000  Uiso   1.00
H295   H     0.54709   1.01212   0.71187   0.00000  Uiso   1.00
H296   H     0.09843   0.00156   0.50741   0.00000  Uiso   1.00
H297   H     0.17708   0.00585   0.58836   0.00000  Uiso   1.00
H298   H     0.21778   0.04282   0.50466   0.00000  Uiso   1.00
H299   H     0.34970   0.08582   0.61678   0.00000  Uiso   1.00
H300   H     0.32466  -0.01094   0.66776   0.00000  Uiso   1.00
H301   H     0.43172   0.04282   0.63126   0.00000  Uiso   1.00
H302   H     0.31965   0.17329   0.73686   0.00000  Uiso   1.00
H303   H     0.43185   0.26518   0.73847   0.00000  Uiso   1.00
H304   H     0.40335   0.21752   0.82047   0.00000  Uiso   1.00
H305   H     0.43603   0.32676   0.26047   0.00000  Uiso   1.00
H306   H     0.39508   0.37127   0.32678   0.00000  Uiso   1.00
H307   H     0.50565   0.36014   0.35063   0.00000  Uiso   1.00
H308   H     0.60622   0.65843   0.32701   0.00000  Uiso   1.00
H309   H     0.65152   0.59764   0.39250   0.00000  Uiso   1.00
H310   H     0.53080   0.57636   0.38186   0.00000  Uiso   1.00
H311   H     0.45002   0.52198   0.80146   0.00000  Uiso   1.00
H312   H     0.34412   0.39366   0.77632   0.00000  Uiso   1.00
H313   H     0.44017   0.42103   0.84276   0.00000  Uiso   1.00
H314   H     0.34185   0.61378   0.84737   0.00000  Uiso   1.00
H315   H     0.43984   0.62984   0.90570   0.00000  Uiso   1.00
H316   H     0.32925   0.59885   0.93915   0.00000  Uiso   1.00
H317   H     0.32653   0.69886   0.05539   0.00000  Uiso   1.00
H318   H     0.26682   0.76153   0.03224   0.00000  Uiso   1.00
H319   H     0.21133   0.65814   0.08427   0.00000  Uiso   1.00
H320   H     0.17762   0.74550   0.17437   0.00000  Uiso   1.00
H321   H     0.22774   0.86797   0.17264   0.00000  Uiso   1.00
H322   H     0.26344   0.81201   0.24741   0.00000  Uiso   1.00
H323   H     0.45212   0.78119   0.18330   0.00000  Uiso   1.00
H324   H     0.35084   0.69636   0.22204   0.00000  Uiso   1.00
H325   H     0.43526   0.82782   0.26037   0.00000  Uiso   1.00
H326   H     0.48405   0.68500   0.40619   0.00000  Uiso   1.00
H327   H     0.48276   0.67460   0.30873   0.00000  Uiso   1.00
H328   H     0.40963   0.70801   0.34185   0.00000  Uiso   1.00
H329   H     0.74360   0.87775   0.43253   0.00000  Uiso   1.00
H330   H     0.68750   0.75924   0.42704   0.00000  Uiso   1.00
H331   H     0.65694   0.81467   0.48566   0.00000  Uiso   1.00
H332   H     0.48293   0.88497   0.39205   0.00000  Uiso   1.00
H333   H     0.60424   0.97413   0.39237   0.00000  Uiso   1.00
H334   H     0.56767   0.91306   0.46636   0.00000  Uiso   1.00
H335   H     0.72123   0.09378   0.07598   0.00000  Uiso   1.00
H336   H     0.71933   0.01001   0.00740   0.00000  Uiso   1.00
H337   H     0.82556   0.11315   0.05290   0.00000  Uiso   1.00
H338   H     0.87616   0.13659   0.22313   0.00000  Uiso   1.00
H339   H     0.93932   0.12281   0.15770   0.00000  Uiso   1.00
H340   H     0.92364   0.06092   0.23449   0.00000  Uiso   1.00
H341   H     0.50856   0.09047   0.48267   0.00000  Uiso   1.00
H342   H     0.55793   0.02177   0.51647   0.00000  Uiso   1.00
H343   H     0.60807   0.10170   0.44020   0.00000  Uiso   1.00
H344   H     0.81966   0.21847   0.61728   0.00000  Uiso   1.00
H345   H     0.73901   0.09863   0.58529   0.00000  Uiso   1.00
H346   H     0.71074   0.13912   0.65922   0.00000  Uiso   1.00
H347   H     0.65752   0.31342   0.62531   0.00000  Uiso   1.00
H348   H     0.55480   0.19687   0.60676   0.00000  Uiso   1.00
H349   H     0.57768   0.27446   0.53957   0.00000  Uiso   1.00
H350   H     0.59744   0.16764   0.72483   0.00000  Uiso   1.00
H351   H     0.59737   0.21767   0.80388   0.00000  Uiso   1.00
H352   H     0.58512   0.26965   0.71834   0.00000  Uiso   1.00
H353   H     0.99685   0.23240   0.41333   0.00000  Uiso   1.00
H354   H     0.98415   0.30492   0.34932   0.00000  Uiso   1.00
H355   H     0.96968   0.19150   0.32492   0.00000  Uiso   1.00
H356   H     0.74348   0.09417   0.47164   0.00000  Uiso   1.00
H357   H     0.86529   0.12364   0.48550   0.00000  Uiso   1.00
H358   H     0.76827   0.01595   0.42410   0.00000  Uiso   1.00
H359   H     0.69597   0.05603   0.75273   0.00000  Uiso   1.00
H360   H     0.82963   0.15695   0.76095   0.00000  Uiso   1.00
H361   H     0.76882   0.14137   0.83566   0.00000  Uiso   1.00
H362   H     0.97696   0.27728   0.21775   0.00000  Uiso   1.00
H363   H     1.01491   0.37609   0.17683   0.00000  Uiso   1.00
H364   H     0.95910   0.27007   0.11829   0.00000  Uiso   1.00
H365   H     0.81145   0.30400   0.04970   0.00000  Uiso   1.00
H366   H     0.89503   0.41986   0.09189   0.00000  Uiso   1.00
H367   H     0.76575   0.36293   0.09821   0.00000  Uiso   1.00
H368   H     0.79354   0.34545   0.26520   0.00000  Uiso   1.00
H369   H     0.89426   0.44707   0.23587   0.00000  Uiso   1.00
H370   H     0.91169   0.37353   0.30219   0.00000  Uiso   1.00
H371   H     0.82065   0.61923   0.45641   0.00000  Uiso   1.00
H372   H     0.81014   0.60150   0.35926   0.00000  Uiso   1.00
H373   H     0.90050   0.60177   0.41777   0.00000  Uiso   1.00
H374   H     0.60236   0.35062   0.44369   0.00000  Uiso   1.00
H375   H     0.63616   0.46661   0.44847   0.00000  Uiso   1.00
H376   H     0.69857   0.41601   0.51585   0.00000  Uiso   1.00
H377   H     0.68265   0.42548   0.71213   0.00000  Uiso   1.00
H378   H     0.78314   0.54065   0.74378   0.00000  Uiso   1.00
H379   H     0.73390   0.45126   0.80392   0.00000  Uiso   1.00
H380   H     0.85127   0.29330   0.72433   0.00000  Uiso   1.00
H381   H     0.73847   0.28269   0.70282   0.00000  Uiso   1.00
H382   H     0.77330   0.28748   0.79261   0.00000  Uiso   1.00
H383   H     0.84396   0.41647   0.61238   0.00000  Uiso   1.00
H384   H     0.96426   0.49582   0.65640   0.00000  Uiso   1.00
H385   H     0.87544   0.53131   0.63835   0.00000  Uiso   1.00
H386   H     0.62222   0.34765   0.89747   0.00000  Uiso   1.00
H387   H     0.55492   0.37478   0.82899   0.00000  Uiso   1.00
H388   H     0.50722   0.33445   0.90555   0.00000  Uiso   1.00
H389   H     0.75347   0.45560   1.00769   0.00000  Uiso   1.00
H390   H     0.68162   0.47457   1.06051   0.00000  Uiso   1.00
H391   H     0.78056   0.56514   1.03166   0.00000  Uiso   1.00
H392   H     0.66875   0.64219   0.89123   0.00000  Uiso   1.00
H393   H     0.65377   0.56219   0.82332   0.00000  Uiso   1.00
H394   H     0.76288   0.61594   0.87987   0.00000  Uiso   1.00
H395   H     0.88500   0.54647   0.09493   0.00000  Uiso   1.00
H396   H     0.98943   0.60285   0.16983   0.00000  Uiso   1.00
H397   H     0.97233   0.68245   0.11161   0.00000  Uiso   1.00
H398   H     1.02427   0.73172   0.26175   0.00000  Uiso   1.00
H399   H     0.95613   0.63407   0.31483   0.00000  Uiso   1.00
H400   H     0.93740   0.72315   0.31532   0.00000  Uiso   1.00
H401   H     0.77312   0.69095   0.22700   0.00000  Uiso   1.00
H402   H     0.71809   0.61789   0.14503   0.00000  Uiso   1.00
H403   H     0.82598   0.72420   0.15000   0.00000  Uiso   1.00
H404   H     0.89024   0.81438   0.06564   0.00000  Uiso   1.00
H405   H     0.86153   0.71156   0.01087   0.00000  Uiso   1.00
H406   H     0.77200   0.73356   0.02800   0.00000  Uiso   1.00
H407   H     0.98411   0.98909  -0.08135   0.00000  Uiso   1.00
H408   H     1.00082   0.97281   0.00987   0.00000  Uiso   1.00
H409   H     0.91227   1.00375  -0.02478   0.00000  Uiso   1.00
H410   H     0.76563   0.89403   0.04361   0.00000  Uiso   1.00
H411   H     0.80058   0.85950   0.13046   0.00000  Uiso   1.00
H412   H     0.88291   0.95450   0.08931   0.00000  Uiso   1.00
H413   H     0.96047   0.93825   0.21873   0.00000  Uiso   1.00
H414   H     0.95276   0.83395   0.23942   0.00000  Uiso   1.00
H415   H     1.01911   0.92936   0.30110   0.00000  Uiso   1.00
H416   H     0.79942   0.72965   0.36378   0.00000  Uiso   1.00
H417   H     0.84776   0.83123   0.43140   0.00000  Uiso   1.00
H418   H     0.92794   0.81025   0.40146   0.00000  Uiso   1.00
H419   H     0.95540   1.03651   0.33935   0.00000  Uiso   1.00
H420   H     0.90040   0.98109   0.40992   0.00000  Uiso   1.00
H421   H     0.83559   1.01180   0.33407   0.00000  Uiso   1.00
H422   H     0.58396   0.79565   0.77375   0.00000  Uiso   1.00
H423   H     0.50444   0.78519   0.83758   0.00000  Uiso   1.00
H424   H     0.54031   0.70577   0.83241   0.00000  Uiso   1.00
H425   H     0.87441   0.94906   0.64137   0.00000  Uiso   1.00
H426   H     0.78389   0.95243   0.58241   0.00000  Uiso   1.00
H427   H     0.77963   0.83974   0.58204   0.00000  Uiso   1.00
H428   H     0.54385   0.82220   0.66008   0.00000  Uiso   1.00
H429   H     0.58487   0.82021   0.58856   0.00000  Uiso   1.00
H430   H     0.62377   0.93783   0.62487   0.00000  Uiso   1.00
H431   H     0.69169   0.74444   0.76591   0.00000  Uiso   1.00
H432   H     0.74578   0.73658   0.68981   0.00000  Uiso   1.00
H433   H     0.61253   0.69434   0.67892   0.00000  Uiso   1.00
loop_
_geom_bond_atom_site_label_1
_geom_bond_atom_site_label_2
_geom_bond_distance
_geom_bond_site_symmetry_2
_ccdc_geom_bond_type
Si1    O53     1.615   .     S
Si1    O93     1.598   .     S
Si1    C52     1.885   1_545 S
Si1    O81     1.610   1_545 S
Si2    O53     1.638   .     S
Si2    O64     1.617   .     S
Si2    C54     1.831   1_554 S
Si2    O59     1.628   1_554 S
Si3    C55     1.837   .     S
Si3    C56     1.849   .     S
Si3    C67     1.869   .     S
Si3    O94     1.582   .     S
Si4    C57     1.836   .     S
Si4    O62     1.589   .     S
Si4    C58     1.834   1_545 S
Si4    O91     1.617   1_545 S
Si5    O59     1.584   .     S
Si5    O73     1.615   .     S
Si5    C60     1.869   1_455 S
Si5    O149    1.636   1_455 S
Si6    C61     1.902   .     S
Si6    O62     1.605   .     S
Si6    O74     1.614   .     S
Si6    O100    1.597   .     S
Si7    C63     1.785   .     S
Si7    O64     1.582   .     S
Si7    C65     1.872   .     S
Si7    O112    1.602   .     S
Si8    C66     1.886   .     S
Si8    C68     1.919   .     S
Si8    C69     1.893   .     S
Si8    O72     1.579   .     S
Si9    O77     1.657   .     S
Si9    O82     1.635   .     S
Si9    C70     1.857   1_455 S
Si9    O158    1.630   1_455 S
Si10   C71     1.830   .     S
Si10   O72     1.612   .     S
Si10   O83     1.568   .     S
Si10   O113    1.640   .     S
Si11   O73     1.636   .     S
Si11   O74     1.589   .     S
Si11   O78     1.580   .     S
Si11   O118    1.660   .     S
Si12   C75     1.920   .     S
Si12   C86     1.806   .     S
Si12   C76     1.811   1_455 S
Si12   O166    1.596   1_455 S
Si13   O77     1.644   .     S
Si13   O78     1.623   .     S
Si13   C79     1.841   .     S
Si13   O88     1.605   .     S
Si14   C80     1.912   .     S
Si14   O81     1.649   .     S
Si14   O90     1.637   1_554 S
Si14   O136    1.693   1_554 S
Si15   O82     1.648   .     S
Si15   O83     1.659   .     S
Si15   C84     1.874   .     S
Si15   C85     1.915   .     S
Si16   C87     1.833   .     S
Si16   O88     1.642   .     S
Si16   C89     1.840   .     S
Si16   O133    1.633   .     S
Si17   O90     1.638   .     S
Si17   O91     1.601   .     S
Si17   C92     1.813   1_455 S
Si17   O177    1.598   1_455 S
Si18   O95     1.693   .     S
Si18   O139    1.610   .     S
Si18   O125    1.620   1_545 S
Si18   O128    1.682   1_545 S
Si19   O93     1.631   .     S
Si19   O94     1.632   .     S
Si19   O101    1.567   .     S
Si19   O110    1.586   .     S
Si20   O95     1.648   .     S
Si20   O111    1.602   .     S
Si20   C96     1.862   1_554 S
Si20   C97     1.865   1_554 S
Si21   C98     1.889   .     S
Si21   C99     1.864   .     S
Si21   O100    1.579   .     S
Si21   C106    1.901   .     S
Si22   O101    1.579   .     S
Si22   C102    1.814   .     S
Si22   C103    1.803   .     S
Si22   O140    1.600   .     S
Si23   C104    1.827   .     S
Si23   O108    1.597   .     S
Si23   C105    1.847   1_545 S
Si23   O135    1.527   1_545 S
Si24   C107    1.854   .     S
Si24   O108    1.584   .     S
Si24   C109    1.753   .     S
Si24   C144    1.890   .     S
Si25   O110    1.574   .     S
Si25   O111    1.656   .     S
Si25   O114    1.700   .     S
Si25   O154    1.636   .     S
Si26   O112    1.632   .     S
Si26   O113    1.638   .     S
Si26   O115    1.591   .     S
Si26   O122    1.636   .     S
Si27   O114    1.759   .     S
Si27   O123    1.612   .     S
Si27   O119    1.686   1_554 S
Si27   O170    1.603   1_554 S
Si28   O115    1.637   .     S
Si28   C116    1.940   .     S
Si28   C117    1.762   .     S
Si28   O155    1.573   .     S
Si29   O118    1.587   .     S
Si29   O119    1.593   .     S
Si29   C120    1.841   .     S
Si29   C121    1.906   .     S
Si30   O122    1.632   .     S
Si30   O123    1.664   .     S
Si30   O127    1.618   .     S
Si30   O174    1.622   .     S
Si31   C124    1.875   .     S
Si31   O125    1.621   .     S
Si31   C126    1.813   .     S
Si31   C129    1.828   .     S
Si32   O127    1.676   .     S
Si32   O128    1.687   .     S
Si32   O134    1.709   1_554 S
Si32   O189    1.691   1_554 S
Si33   C130    1.766   .     S
Si33   C131    1.863   .     S
Si33   C132    1.875   .     S
Si33   O176    1.582   .     S
Si34   O133    1.601   .     S
Si34   O134    1.638   .     S
Si34   O135    1.577   .     S
Si34   O136    1.696   .     S
Si35   C137    1.909   .     S
Si35   C138    1.913   .     S
Si35   O175    1.613   1_545 S
Si35   C181    1.782   1_545 S
Si36   O139    1.615   .     S
Si36   O140    1.544   .     S
Si36   O146    1.613   .     S
Si36   O150    1.568   .     S
Si37   C141    1.891   .     S
Si37   C142    1.861   .     S
Si37   C143    1.809   .     S
Si37   O156    1.581   .     S
Si38   C145    1.956   .     S
Si38   O146    1.652   .     S
Si38   C147    1.967   .     S
Si38   O157    1.572   .     S
Si39   C148    1.857   .     S
Si39   O149    1.599   .     S
Si39   O188    1.615   1_545 S
Si39   O193    1.568   1_545 S
Si40   O150    1.613   .     S
Si40   C151    1.847   .     S
Si40   C152    1.855   .     S
Si40   C153    1.820   .     S
Si41   O154    1.602   .     S
Si41   O155    1.589   .     S
Si41   O160    1.609   .     S
Si41   O171    1.594   .     S
Si42   O156    1.570   .     S
Si42   O157    1.573   .     S
Si42   O158    1.629   .     S
Si42   O161    1.602   .     S
Si43   C159    1.827   .     S
Si43   O160    1.592   .     S
Si43   O161    1.553   .     S
Si43   C162    1.885   .     S
Si44   C163    1.862   .     S
Si44   C164    1.809   .     S
Si44   C165    1.875   .     S
Si44   O166    1.604   .     S
Si45   C167    1.851   .     S
Si45   C168    1.854   .     S
Si45   C169    1.877   .     S
Si45   O170    1.573   .     S
Si46   O171    1.584   .     S
Si46   C172    1.899   .     S
Si46   C173    1.871   .     S
Si46   C178    1.821   .     S
Si47   O174    1.652   .     S
Si47   O175    1.647   .     S
Si47   O176    1.592   .     S
Si47   O183    1.585   .     S
Si48   C179    1.827   .     S
Si48   C180    1.854   .     S
Si48   O177    1.594   1_554 S
Si48   O187    1.634   1_554 S
Si49   C182    1.887   .     S
Si49   O183    1.617   .     S
Si49   C184    1.887   .     S
Si49   C185    1.762   .     S
Si50   C186    1.869   .     S
Si50   O187    1.622   .     S
Si50   O188    1.573   .     S
Si50   O189    1.678   .     S
Si51   C190    1.819   .     S
Si51   C191    1.892   .     S
Si51   C192    1.837   .     S
Si51   O193    1.654   .     S
C52    H194    1.006   .     S
C52    H195    1.104   .     S
C52    H196    1.121   .     S
C52    Si1     1.885   1_565 S
C54    H197    1.089   .     S
C54    H198    1.088   .     S
C54    H199    1.104   .     S
C54    Si2     1.831   1_556 S
C55    H200    1.067   .     S
C55    H201    1.158   .     S
C55    H202    1.104   .     S
C56    H203    1.103   .     S
C56    H204    1.109   .     S
C56    H205    1.095   .     S
C57    H206    1.098   .     S
C57    H207    1.115   .     S
C57    H208    1.115   .     S
C58    H209    1.135   .     S
C58    H210    1.088   .     S
C58    H211    1.085   .     S
C58    Si4     1.834   1_565 S
O59    Si2     1.628   1_556 S
C60    H212    1.132   .     S
C60    H213    1.062   .     S
C60    H214    1.057   .     S
C60    Si5     1.869   1_655 S
C61    H215    1.131   .     S
C61    H216    1.111   .     S
C61    H217    1.090   .     S
C63    H218    1.150   .     S
C63    H219    1.090   .     S
C63    H220    1.137   .     S
C65    H221    1.057   .     S
C65    H222    1.101   .     S
C65    H223    1.114   .     S
C66    H224    1.140   .     S
C66    H225    1.098   .     S
C66    H226    1.101   .     S
C67    H227    1.068   .     S
C67    H228    1.092   .     S
C67    H229    1.081   .     S
C68    H230    1.142   .     S
C68    H231    1.127   .     S
C68    H232    1.095   .     S
C69    H233    1.102   .     S
C69    H234    1.085   .     S
C69    H235    1.142   .     S
C70    H236    1.149   .     S
C70    H237    1.098   .     S
C70    H238    1.102   .     S
C70    Si9     1.857   1_655 S
C71    H239    1.088   .     S
C71    H240    1.094   .     S
C71    H241    1.138   .     S
C75    H242    1.062   .     S
C75    H243    1.129   .     S
C75    H244    1.080   .     S
C76    H245    1.055   .     S
C76    H246    1.093   .     S
C76    H247    1.165   .     S
C76    Si12    1.811   1_655 S
C79    H248    1.139   .     S
C79    H249    1.124   .     S
C79    H250    1.077   .     S
C80    H251    1.164   .     S
C80    H252    1.136   .     S
C80    H253    1.088   .     S
O81    Si1     1.610   1_565 S
C84    H254    1.124   .     S
C84    H255    1.102   .     S
C84    H256    1.091   .     S
C85    H257    1.098   .     S
C85    H258    1.148   .     S
C85    H259    1.147   .     S
C86    H260    1.104   .     S
C86    H261    1.070   .     S
C86    H262    1.143   .     S
C87    H263    1.113   .     S
C87    H264    1.099   .     S
C87    H265    1.098   .     S
C89    H266    1.142   .     S
C89    H267    1.069   .     S
C89    H268    1.109   .     S
O90    Si14    1.637   1_556 S
O91    Si4     1.617   1_565 S
C92    H269    1.148   .     S
C92    H270    1.115   .     S
C92    H271    1.034   .     S
C92    Si17    1.813   1_655 S
C96    H272    1.107   .     S
C96    H273    1.126   .     S
C96    H274    1.150   .     S
C96    Si20    1.862   1_556 S
C97    H275    1.098   .     S
C97    H276    1.116   .     S
C97    H277    1.074   .     S
C97    Si20    1.865   1_556 S
C98    H278    1.171   .     S
C98    H279    1.151   .     S
C98    H280    1.104   .     S
C99    H281    1.092   .     S
C99    H282    1.096   .     S
C99    H283    1.088   .     S
C102   H284    1.144   .     S
C102   H285    1.172   .     S
C102   H286    1.131   .     S
C103   H287    1.089   .     S
C103   H288    1.085   .     S
C103   H289    1.142   .     S
C104   H290    1.084   .     S
C104   H291    1.080   .     S
C104   H292    1.117   .     S
C105   H293    1.177   .     S
C105   H294    1.093   .     S
C105   H295    1.092   .     S
C105   Si23    1.847   1_565 S
C106   H296    1.088   .     S
C106   H297    1.110   .     S
C106   H298    1.069   .     S
C107   H299    1.007   .     S
C107   H300    1.117   .     S
C107   H301    1.127   .     S
C109   H302    1.102   .     S
C109   H303    1.058   .     S
C109   H304    1.120   .     S
C116   H305    1.082   .     S
C116   H306    1.141   .     S
C116   H307    1.125   .     S
C117   H308    1.100   .     S
C117   H309    1.147   .     S
C117   H310    1.116   .     S
O119   Si27    1.686   1_556 S
C120   H311    1.187   .     S
C120   H312    1.127   .     S
C120   H313    1.133   .     S
C121   H314    1.067   .     S
C121   H315    1.095   .     S
C121   H316    1.098   .     S
C124   H317    1.132   .     S
C124   H318    1.081   .     S
C124   H319    1.118   .     S
O125   Si18    1.620   1_565 S
C126   H320    1.075   .     S
C126   H321    1.098   .     S
C126   H322    1.098   .     S
O128   Si18    1.682   1_565 S
C129   H323    1.040   .     S
C129   H324    1.158   .     S
C129   H325    1.112   .     S
C130   H326    1.109   .     S
C130   H327    1.100   .     S
C130   H328    1.074   .     S
C131   H329    1.073   .     S
C131   H330    1.050   .     S
C131   H331    1.056   .     S
C132   H332    1.059   .     S
C132   H333    1.070   .     S
C132   H334    1.117   .     S
O134   Si32    1.709   1_556 S
O135   Si23    1.527   1_565 S
O136   Si14    1.693   1_556 S
C137   H335    1.083   .     S
C137   H336    1.109   .     S
C137   H337    1.096   .     S
C138   H338    1.086   .     S
C138   H339    1.080   .     S
C138   H340    1.107   .     S
C141   H341    1.103   .     S
C141   H342    1.162   .     S
C141   H343    1.148   .     S
C142   H344    1.102   .     S
C142   H345    1.096   .     S
C142   H346    1.149   .     S
C143   H347    1.091   .     S
C143   H348    1.069   .     S
C143   H349    1.127   .     S
C144   H350    1.031   .     S
C144   H351    1.105   .     S
C144   H352    1.113   .     S
C145   H353    1.117   .     S
C145   H354    1.098   .     S
C145   H355    1.096   .     S
C147   H356    1.018   .     S
C147   H357    1.152   .     S
C147   H358    1.130   .     S
C148   H359    1.143   .     S
C148   H360    1.111   .     S
C148   H361    1.176   .     S
O149   Si5     1.636   1_655 S
C151   H362    1.056   .     S
C151   H363    1.097   .     S
C151   H364    1.111   .     S
C152   H365    1.072   .     S
C152   H366    1.081   .     S
C152   H367    1.113   .     S
C153   H368    1.064   .     S
C153   H369    1.121   .     S
C153   H370    1.123   .     S
O158   Si9     1.630   1_655 S
C159   H371    1.151   .     S
C159   H372    1.073   .     S
C159   H373    1.099   .     S
C162   H374    1.055   .     S
C162   H375    1.103   .     S
C162   H376    1.139   .     S
C163   H377    1.076   .     S
C163   H378    1.094   .     S
C163   H379    1.124   .     S
C164   H380    1.116   .     S
C164   H381    1.137   .     S
C164   H382    1.092   .     S
C165   H383    1.110   .     S
C165   H384    1.129   .     S
C165   H385    1.070   .     S
O166   Si12    1.596   1_655 S
C167   H386    1.101   .     S
C167   H387    1.083   .     S
C167   H388    1.103   .     S
C168   H389    1.104   .     S
C168   H390    1.079   .     S
C168   H391    1.057   .     S
C169   H392    1.106   .     S
C169   H393    1.082   .     S
C169   H394    1.057   .     S
O170   Si27    1.603   1_556 S
C172   H395    1.168   .     S
C172   H396    1.132   .     S
C172   H397    1.097   .     S
C173   H398    1.118   .     S
C173   H399    1.050   .     S
C173   H400    1.069   .     S
O175   Si35    1.613   1_565 S
O177   Si17    1.598   1_655 S
O177   Si48    1.594   1_556 S
C178   H401    1.075   .     S
C178   H402    1.095   .     S
C178   H403    1.051   .     S
C179   H404    1.060   .     S
C179   H405    1.141   .     S
C179   H406    1.097   .     S
C180   H407    1.116   .     S
C180   H408    1.086   .     S
C180   H409    1.109   .     S
C181   H410    1.092   .     S
C181   H411    1.119   .     S
C181   H412    1.083   .     S
C181   Si35    1.782   1_565 S
C182   H413    1.069   .     S
C182   H414    1.084   .     S
C182   H415    1.057   .     S
C184   H416    1.111   .     S
C184   H417    1.090   .     S
C184   H418    1.101   .     S
C185   H419    1.100   .     S
C185   H420    1.079   .     S
C185   H421    1.121   .     S
C186   H422    1.071   .     S
C186   H423    1.136   .     S
C186   H424    1.087   .     S
O187   Si48    1.634   1_556 S
O188   Si39    1.615   1_565 S
O189   Si32    1.691   1_556 S
C190   H425    1.098   .     S
C190   H426    1.082   .     S
C190   H427    1.102   .     S
C191   H428    1.087   .     S
C191   H429    1.059   .     S
C191   H430    1.131   .     S
C192   H431    1.140   .     S
C192   H432    1.133   .     S
C192   H433    1.133   .     S
O193   Si39    1.568   1_565 S
