data_333-13-11-12-15-30-6
_audit_creation_date              2025-03-07
_audit_creation_method            'Materials Studio'
_symmetry_space_group_name_H-M    'P1'
_symmetry_Int_Tables_number       1
_symmetry_cell_setting            triclinic
loop_
_symmetry_equiv_pos_as_xyz
  x,y,z
_cell_length_a                    17.0379
_cell_length_b                    17.0274
_cell_length_c                    19.5655
_cell_angle_alpha                 88.9317
_cell_angle_beta                  88.5409
_cell_angle_gamma                 125.9202
loop_
_atom_site_label
_atom_site_type_symbol
_atom_site_fract_x
_atom_site_fract_y
_atom_site_fract_z
_atom_site_U_iso_or_equiv
_atom_site_adp_type
_atom_site_occupancy
Si1    Si    0.15889   0.18281  -0.05714   0.00000  Uiso   1.00
Si2    Si    0.21060  -0.02151   0.47919   0.00000  Uiso   1.00
Si3    Si    0.00440   0.10113   0.58817   0.00000  Uiso   1.00
Si4    Si    0.16362  -0.02009   0.78264   0.00000  Uiso   1.00
Si5    Si   -0.01150   0.13650   0.87011   0.00000  Uiso   1.00
Si6    Si    0.16394   0.11689   0.66963   0.00000  Uiso   1.00
Si7    Si    0.15886   0.34533   0.01092   0.00000  Uiso   1.00
Si8    Si    0.09398   0.46776  -0.04718   0.00000  Uiso   1.00
Si9    Si   -0.03486   0.48130   0.85383   0.00000  Uiso   1.00
Si10   Si    0.20683   0.56567   0.70623   0.00000  Uiso   1.00
Si11   Si    0.04732   0.78865   0.31732   0.00000  Uiso   1.00
Si12   Si    0.07768   0.82062   0.02373   0.00000  Uiso   1.00
Si13   Si    0.25331   0.74765   0.46577   0.00000  Uiso   1.00
Si14   Si    0.04345   0.81384   0.57397   0.00000  Uiso   1.00
Si15   Si    0.24941   0.88001   0.37048   0.00000  Uiso   1.00
Si16   Si    0.14653   0.67403   0.78311   0.00000  Uiso   1.00
Si17   Si   -0.00516   0.85264   0.89478   0.00000  Uiso   1.00
Si18   Si    0.16815   0.83547   0.69391   0.00000  Uiso   1.00
Si19   Si    0.45733   0.05093   0.10667   0.00000  Uiso   1.00
Si20   Si    0.32085   0.21468   0.19056   0.00000  Uiso   1.00
Si21   Si    0.43919   0.15580  -0.01624   0.00000  Uiso   1.00
Si22   Si    0.32955   0.14598   0.57777   0.00000  Uiso   1.00
Si23   Si    0.56043   0.19755   0.39123   0.00000  Uiso   1.00
Si24   Si    0.47208   0.02285   0.76970   0.00000  Uiso   1.00
Si25   Si    0.30514   0.15540   0.87765   0.00000  Uiso   1.00
Si26   Si    0.47070   0.18242   0.68889   0.00000  Uiso   1.00
Si27   Si    0.46849   0.32065   0.06907   0.00000  Uiso   1.00
Si28   Si    0.28630   0.50527   0.11215   0.00000  Uiso   1.00
Si29   Si    0.49760   0.46960  -0.03538   0.00000  Uiso   1.00
Si30   Si    0.46256   0.28035   0.45597   0.00000  Uiso   1.00
Si31   Si    0.36217   0.54939   0.64826   0.00000  Uiso   1.00
Si32   Si    0.48405   0.32977   0.78873   0.00000  Uiso   1.00
Si33   Si    0.46682   0.46761   0.70484   0.00000  Uiso   1.00
Si34   Si    0.33820   0.90681   0.22457   0.00000  Uiso   1.00
Si35   Si    0.32888   0.87197   0.59542   0.00000  Uiso   1.00
Si36   Si    0.46048   0.83596   0.27048   0.00000  Uiso   1.00
Si37   Si    0.31288   0.84853   0.85720   0.00000  Uiso   1.00
Si38   Si    0.48977   0.89716   0.67103   0.00000  Uiso   1.00
Si39   Si    0.83792  -0.05674   0.10903   0.00000  Uiso   1.00
Si40   Si    0.94059   0.16304   0.31910   0.00000  Uiso   1.00
Si41   Si    0.59882   0.15785   0.88748   0.00000  Uiso   1.00
Si42   Si    0.80627   0.22357   0.68390   0.00000  Uiso   1.00
Si43   Si    0.63510   0.45634   0.16838   0.00000  Uiso   1.00
Si44   Si    0.81030   0.47154  -0.05501   0.00000  Uiso   1.00
Si45   Si    1.01165   0.35922   0.37830   0.00000  Uiso   1.00
Si46   Si    0.76563   0.32263   0.78833   0.00000  Uiso   1.00
Si47   Si    0.65661   0.48557   0.87154   0.00000  Uiso   1.00
Si48   Si    0.85324   0.87689  -0.02910   0.00000  Uiso   1.00
Si49   Si    0.88855   0.60098   0.54674   0.00000  Uiso   1.00
Si50   Si    0.83209   0.68891   0.81074   0.00000  Uiso   1.00
Si51   Si    0.67370   0.85543   0.90968   0.00000  Uiso   1.00
C52    C     0.14557   0.10983   0.02148   0.00000  Uiso   1.00
C53    C     0.14089   0.01509   0.44180   0.00000  Uiso   1.00
C54    C     0.04536   0.13176   0.49482   0.00000  Uiso   1.00
C55    C     0.87078  -0.00217   0.59937   0.00000  Uiso   1.00
O56    O     0.05501   0.12429   0.91471   0.00000  Uiso   1.00
C57    C     0.05409   0.25324   0.82152   0.00000  Uiso   1.00
C58    C     0.89951   0.13916   0.92031   0.00000  Uiso   1.00
C59    C     0.93361   0.04137   0.80468   0.00000  Uiso   1.00
O60    O     0.06272   0.07705   0.63676   0.00000  Uiso   1.00
O61    O     0.14533   0.02533   0.71590   0.00000  Uiso   1.00
C62    C     0.20992   0.22725   0.72529   0.00000  Uiso   1.00
C63    C     0.06331   0.26421   0.08012   0.00000  Uiso   1.00
O64    O     0.18615   0.28505  -0.03273   0.00000  Uiso   1.00
O65    O     0.10808   0.38138  -0.03236   0.00000  Uiso   1.00
C66    C     0.05363   0.49646   0.03622   0.00000  Uiso   1.00
C67    C     0.21696   0.57290   0.92757   0.00000  Uiso   1.00
O68    O     0.01821   0.44559   0.89789   0.00000  Uiso   1.00
C69    C     0.13971   0.55743   0.63176   0.00000  Uiso   1.00
C70    C     0.13828   0.44453   0.75182   0.00000  Uiso   1.00
C71    C     0.09746   0.88664   0.25081   0.00000  Uiso   1.00
C72    C     0.96609   0.79748   0.37421   0.00000  Uiso   1.00
C73    C     0.97795   0.66782   0.27956   0.00000  Uiso   1.00
C74    C     0.10380   0.72526   0.02096   0.00000  Uiso   1.00
C75    C    -0.02551   0.77953   0.08855   0.00000  Uiso   1.00
C76    C     0.13028   0.63669   0.45453   0.00000  Uiso   1.00
C77    C     0.33918   0.71395   0.47303   0.00000  Uiso   1.00
O78    O     0.13363   0.87628   0.52133   0.00000  Uiso   1.00
C79    C     0.96285   0.85380   0.58072   0.00000  Uiso   1.00
O80    O     0.13536   0.80736   0.35823   0.00000  Uiso   1.00
O81    O     0.28605   0.82764   0.40832   0.00000  Uiso   1.00
O82    O     0.26109   0.96029   0.41825   0.00000  Uiso   1.00
O83    O     0.03994   0.57363   0.80741   0.00000  Uiso   1.00
O84    O     0.21130   0.64523   0.75048   0.00000  Uiso   1.00
O85    O     0.05615   0.84527   0.94987   0.00000  Uiso   1.00
O86    O     0.06799   0.92565   0.83330   0.00000  Uiso   1.00
O87    O     0.08232   0.81723   0.64801   0.00000  Uiso   1.00
O88    O     0.13364   0.73249   0.72618   0.00000  Uiso   1.00
O89    O     0.18054   0.90269   0.75573   0.00000  Uiso   1.00
C90    C     0.57041   0.16269   0.14224   0.00000  Uiso   1.00
C91    C     0.48476   0.96397   0.07011   0.00000  Uiso   1.00
C92    C     0.19078   0.11303   0.18858   0.00000  Uiso   1.00
C93    C     0.30931   0.30314   0.23370   0.00000  Uiso   1.00
O94    O     0.41344   0.07827   0.04601   0.00000  Uiso   1.00
O95    O     0.28364   0.05147   0.53360   0.00000  Uiso   1.00
O96    O     0.24674   0.15419   0.60750   0.00000  Uiso   1.00
C97    C     0.38052   0.17360   0.24529   0.00000  Uiso   1.00
C98    C     0.50024   0.09470   0.33589   0.00000  Uiso   1.00
C99    C     0.63612   0.19246   0.45695   0.00000  Uiso   1.00
C100   C     0.64730   0.29766   0.32823   0.00000  Uiso   1.00
O101   O     0.25689   0.06786   0.82475   0.00000  Uiso   1.00
O102   O     0.34249   0.12874   0.94435   0.00000  Uiso   1.00
O103   O     0.23789   0.19165   0.89130   0.00000  Uiso   1.00
O104   O     0.37727   0.13243   0.64168   0.00000  Uiso   1.00
O105   O     0.46002   0.10403   0.74132   0.00000  Uiso   1.00
C106   C     0.57753   0.24130   0.62716   0.00000  Uiso   1.00
O107   O     0.36748   0.25186   0.11578   0.00000  Uiso   1.00
O108   O     0.47929   0.25929   0.01638   0.00000  Uiso   1.00
O109   O     0.24926   0.43604   0.04662   0.00000  Uiso   1.00
C110   C     0.40076   0.53340   0.15294   0.00000  Uiso   1.00
C111   C     0.33270   0.63047   0.08109   0.00000  Uiso   1.00
C112   C     0.19027   0.44883   0.18370   0.00000  Uiso   1.00
O113   O     0.45780   0.39704   0.02804   0.00000  Uiso   1.00
C114   C     0.52096   0.58122  -0.00263   0.00000  Uiso   1.00
C115   C     0.40068   0.43731   0.90818   0.00000  Uiso   1.00
O116   O     0.41230   0.23978   0.52940   0.00000  Uiso   1.00
O117   O     0.48020   0.20889   0.42239   0.00000  Uiso   1.00
C118   C     0.37790   0.29710   0.41109   0.00000  Uiso   1.00
C119   C     0.58427   0.40755   0.46324   0.00000  Uiso   1.00
C120   C     0.27345   0.46146   0.58271   0.00000  Uiso   1.00
C121   C     0.47200   0.65397   0.59816   0.00000  Uiso   1.00
O122   O     0.31242   0.59017   0.68701   0.00000  Uiso   1.00
O123   O     0.40977   0.24756   0.84682   0.00000  Uiso   1.00
O124   O     0.48148   0.27002   0.72487   0.00000  Uiso   1.00
O125   O     0.39428   0.49775   0.70111   0.00000  Uiso   1.00
O126   O     0.44483   0.38991   0.76355   0.00000  Uiso   1.00
C127   C     0.58836   0.57540   0.71408   0.00000  Uiso   1.00
C128   C     0.45650   0.40984   0.62370   0.00000  Uiso   1.00
C129   C     0.23471   0.78762   0.19329   0.00000  Uiso   1.00
O130   O     0.37677   0.99463   0.16857   0.00000  Uiso   1.00
O131   O     0.30404   0.92352   0.29682   0.00000  Uiso   1.00
O132   O     0.26015   0.78925   0.53992   0.00000  Uiso   1.00
C133   C     0.41842   0.98539   0.54056   0.00000  Uiso   1.00
O134   O     0.26914   0.88584   0.64949   0.00000  Uiso   1.00
O135   O     0.42300   0.89878   0.24133   0.00000  Uiso   1.00
C136   C     0.35288   0.70787   0.27923   0.00000  Uiso   1.00
C137   C     0.52003   0.89439   0.35545   0.00000  Uiso   1.00
C138   C     0.55871   0.85726   0.20976   0.00000  Uiso   1.00
O139   O     0.20957   0.75270   0.83710   0.00000  Uiso   1.00
C140   C     0.38772   0.81346   0.90399   0.00000  Uiso   1.00
O141   O     0.36840   0.92009   0.79323   0.00000  Uiso   1.00
C142   C     0.29271   0.91257   0.91739   0.00000  Uiso   1.00
C143   C     0.17844   0.93275   1.06389   0.00000  Uiso   1.00
O144   O     0.38928   0.84341   0.63447   0.00000  Uiso   1.00
C145   C     0.49933   0.82412   0.73553   0.00000  Uiso   1.00
O146   O     0.51221   0.99010   0.70932   0.00000  Uiso   1.00
C147   C     0.58465   0.93587   0.60133   0.00000  Uiso   1.00
C148   C     0.79743   0.01922   0.09078   0.00000  Uiso   1.00
C149   C     0.93932  -0.00091   0.16668   0.00000  Uiso   1.00
C150   C     0.73692   0.82056   0.14708   0.00000  Uiso   1.00
C151   C     1.05225   0.16833   0.30018   0.00000  Uiso   1.00
C152   C     0.89440   0.18384   0.24222   0.00000  Uiso   1.00
C153   C     0.83931   0.03770   0.36065   0.00000  Uiso   1.00
O154   O     0.54300   0.07058   0.83266   0.00000  Uiso   1.00
C155   C     0.65299   0.12311   0.95171   0.00000  Uiso   1.00
O156   O     0.51776   0.16747   0.92787   0.00000  Uiso   1.00
C157   C     1.02321   0.21205   0.62269   0.00000  Uiso   1.00
C158   C     0.93147   0.32732   0.67402   0.00000  Uiso   1.00
C159   C     0.76164   0.19844   0.59865   0.00000  Uiso   1.00
C160   C     0.78634   0.10833   0.71772   0.00000  Uiso   1.00
O161   O     0.56028   0.37447   0.11531   0.00000  Uiso   1.00
C162   C     0.73568   0.44600   0.18514   0.00000  Uiso   1.00
C163   C     0.68364   0.58106   0.13932   0.00000  Uiso   1.00
C164   C     0.57838   0.44789   0.24964   0.00000  Uiso   1.00
O165   O     0.90667   0.50033   0.90789   0.00000  Uiso   1.00
C166   C     0.76152   0.35671  -0.00168   0.00000  Uiso   1.00
C167   C     0.84313   0.56944  -0.00068   0.00000  Uiso   1.00
C168   C     0.94247   0.36002   0.45042   0.00000  Uiso   1.00
O169   O     0.96730   0.24638   0.36757   0.00000  Uiso   1.00
C170   C     0.98696   0.41271   0.30366   0.00000  Uiso   1.00
C171   C     1.14881   0.42576   0.38896   0.00000  Uiso   1.00
O172   O     0.68936   0.26040   0.85434   0.00000  Uiso   1.00
O173   O     0.75068   0.24526   0.73866   0.00000  Uiso   1.00
C174   C     0.72940   0.38721   0.73924   0.00000  Uiso   1.00
O175   O     0.87791   0.38940   0.81110   0.00000  Uiso   1.00
O176   O     0.58962   0.40814   0.81771   0.00000  Uiso   1.00
O177   O     0.73200   0.45948   0.89551   0.00000  Uiso   1.00
O178   O     0.58742   0.48059   0.93085   0.00000  Uiso   1.00
O179   O     0.94458   0.90006   0.92626   0.00000  Uiso   1.00
C180   C     0.77356   0.74444  -0.01428   0.00000  Uiso   1.00
O181   O     0.88022   0.92408   0.04380   0.00000  Uiso   1.00
C182   C     0.90585   0.51536   0.59433   0.00000  Uiso   1.00
C183   C     0.86564   0.56052   0.45669   0.00000  Uiso   1.00
C184   C     0.78133   0.59180   0.58297   0.00000  Uiso   1.00
O185   O     0.98304   0.70452   0.55338   0.00000  Uiso   1.00
O186   O     0.72360   0.59635   0.84164   0.00000  Uiso   1.00
C187   C     0.89484   0.64669   0.76025   0.00000  Uiso   1.00
C188   C     0.82545   0.77626   0.75911   0.00000  Uiso   1.00
O189   O     0.90982   0.74862   0.87127   0.00000  Uiso   1.00
C190   C     0.61631   0.74632   0.85562   0.00000  Uiso   1.00
O191   O     0.78494   0.89796   0.93383   0.00000  Uiso   1.00
C192   C     0.67317   0.94621   0.85620   0.00000  Uiso   1.00
C193   C     0.59082   0.82447   0.98544   0.00000  Uiso   1.00
H194   H     0.09200   0.10407   0.06255   0.00000  Uiso   1.00
H195   H     0.21449   0.14747   0.04454   0.00000  Uiso   1.00
H196   H     0.11825   0.03763   0.00788   0.00000  Uiso   1.00
H197   H     0.06862  -0.01798   0.46688   0.00000  Uiso   1.00
H198   H     0.13283   0.00336   0.38461   0.00000  Uiso   1.00
H199   H     0.18419   0.09391   0.45371   0.00000  Uiso   1.00
H200   H     0.12546   0.16963   0.49520   0.00000  Uiso   1.00
H201   H     0.03688   0.18421   0.47333   0.00000  Uiso   1.00
H202   H     0.01070   0.06426   0.46602   0.00000  Uiso   1.00
H203   H     0.85006  -0.06131   0.57050   0.00000  Uiso   1.00
H204   H     0.84299   0.02885   0.56981   0.00000  Uiso   1.00
H205   H     0.83560  -0.02640   0.65255   0.00000  Uiso   1.00
H206   H     0.07057   0.25074   0.76571   0.00000  Uiso   1.00
H207   H     0.12170   0.30687   0.84828   0.00000  Uiso   1.00
H208   H     0.00255   0.27481   0.82180   0.00000  Uiso   1.00
H209   H     0.86641   0.07791   0.95862   0.00000  Uiso   1.00
H210   H     0.85025   0.13978   0.88459   0.00000  Uiso   1.00
H211   H     0.94168   0.21293   0.94432   0.00000  Uiso   1.00
H212   H     0.98445   0.02506   0.80379   0.00000  Uiso   1.00
H213   H     0.93210   0.07499   0.75227   0.00000  Uiso   1.00
H214   H     0.85872  -0.02591   0.81878   0.00000  Uiso   1.00
H215   H     0.27807   0.25056   0.74628   0.00000  Uiso   1.00
H216   H     0.16288   0.20651   0.76894   0.00000  Uiso   1.00
H217   H     0.23339   0.29331   0.69406   0.00000  Uiso   1.00
H218   H     0.02049   0.19111   0.06261   0.00000  Uiso   1.00
H219   H     0.01356   0.28369   0.08533   0.00000  Uiso   1.00
H220   H     0.09850   0.27768   0.12809   0.00000  Uiso   1.00
H221   H    -0.00782   0.49833   0.02272   0.00000  Uiso   1.00
H222   H     0.10797   0.55611   0.06403   0.00000  Uiso   1.00
H223   H     0.02435   0.43492   0.07150   0.00000  Uiso   1.00
H224   H     0.22843   0.57141   0.87072   0.00000  Uiso   1.00
H225   H     0.26260   0.55719   0.95142   0.00000  Uiso   1.00
H226   H     0.22230   0.63243   0.94755   0.00000  Uiso   1.00
H227   H     0.07572   0.55243   0.64851   0.00000  Uiso   1.00
H228   H     0.11878   0.49144   0.60549   0.00000  Uiso   1.00
H229   H     0.18158   0.61710   0.58941   0.00000  Uiso   1.00
H230   H     0.18061   0.44925   0.79438   0.00000  Uiso   1.00
H231   H     0.13125   0.40128   0.71002   0.00000  Uiso   1.00
H232   H     0.07034   0.43088   0.77279   0.00000  Uiso   1.00
H233   H     0.03867   0.89376   0.23355   0.00000  Uiso   1.00
H234   H     0.14271   0.88585   0.21128   0.00000  Uiso   1.00
H235   H     0.14812   0.95307   0.27921   0.00000  Uiso   1.00
H236   H     0.97998   0.87147   0.37499   0.00000  Uiso   1.00
H237   H     0.98005   0.78399   0.42744   0.00000  Uiso   1.00
H238   H     0.89024   0.74338   0.36439   0.00000  Uiso   1.00
H239   H     0.93048   0.60848   0.32391   0.00000  Uiso   1.00
H240   H     1.03573   0.66240   0.25935   0.00000  Uiso   1.00
H241   H     0.93625   0.66645   0.23506   0.00000  Uiso   1.00
H242   H     0.17932   0.76096   0.00481   0.00000  Uiso   1.00
H243   H     0.05975   0.67430  -0.02079   0.00000  Uiso   1.00
H244   H     0.08472   0.67978   0.06407   0.00000  Uiso   1.00
H245   H    -0.05711   0.82216   0.08263   0.00000  Uiso   1.00
H246   H     0.00815   0.78956   0.13935   0.00000  Uiso   1.00
H247   H    -0.08551   0.69892   0.09067   0.00000  Uiso   1.00
H248   H     0.13101   0.57550   0.47156   0.00000  Uiso   1.00
H249   H     0.11986   0.63592   0.39947   0.00000  Uiso   1.00
H250   H     0.07529   0.63757   0.48807   0.00000  Uiso   1.00
H251   H     0.32431   0.66450   0.43165   0.00000  Uiso   1.00
H252   H     0.32658   0.68583   0.52256   0.00000  Uiso   1.00
H253   H     0.41460   0.77613   0.46467   0.00000  Uiso   1.00
H254   H     0.90183   0.81015   0.61835   0.00000  Uiso   1.00
H255   H     0.93365   0.84210   0.52583   0.00000  Uiso   1.00
H256   H     1.01392   0.93193   0.58609   0.00000  Uiso   1.00
H257   H     0.56756   0.22014   0.13311   0.00000  Uiso   1.00
H258   H     0.63944   0.18396   0.11798   0.00000  Uiso   1.00
H259   H     0.58228   0.15748   0.19654   0.00000  Uiso   1.00
H260   H     0.56072   0.99452   0.08090   0.00000  Uiso   1.00
H261   H     0.46896   0.95404   0.01467   0.00000  Uiso   1.00
H262   H     0.43832   0.89075   0.09485   0.00000  Uiso   1.00
H263   H     0.17565   0.04267   0.17291   0.00000  Uiso   1.00
H264   H     0.13884   0.12683   0.16493   0.00000  Uiso   1.00
H265   H     0.16148   0.08538   0.23958   0.00000  Uiso   1.00
H266   H     0.25434   0.27405   0.27444   0.00000  Uiso   1.00
H267   H     0.28951   0.33690   0.19720   0.00000  Uiso   1.00
H268   H     0.37776   0.36380   0.25760   0.00000  Uiso   1.00
H269   H     0.45694   0.21816   0.22157   0.00000  Uiso   1.00
H270   H     0.33485   0.09493   0.24112   0.00000  Uiso   1.00
H271   H     0.37464   0.18882   0.29762   0.00000  Uiso   1.00
H272   H     0.46787   0.10782   0.29296   0.00000  Uiso   1.00
H273   H     0.44716   0.03181   0.37422   0.00000  Uiso   1.00
H274   H     0.54744   0.08050   0.31135   0.00000  Uiso   1.00
H275   H     0.66543   0.25168   0.49227   0.00000  Uiso   1.00
H276   H     0.70162   0.20360   0.43507   0.00000  Uiso   1.00
H277   H     0.59372   0.12506   0.48352   0.00000  Uiso   1.00
H278   H     0.68841   0.36504   0.35683   0.00000  Uiso   1.00
H279   H     0.60055   0.29523   0.28622   0.00000  Uiso   1.00
H280   H     0.69562   0.27909   0.30823   0.00000  Uiso   1.00
H281   H     0.55407   0.20089   0.58101   0.00000  Uiso   1.00
H282   H     0.63689   0.24065   0.64418   0.00000  Uiso   1.00
H283   H     0.60443   0.31762   0.61607   0.00000  Uiso   1.00
H284   H     0.46740   0.60621   0.13888   0.00000  Uiso   1.00
H285   H     0.41534   0.48209   0.13864   0.00000  Uiso   1.00
H286   H     0.39140   0.52999   0.21071   0.00000  Uiso   1.00
H287   H     0.27483   0.62988   0.05939   0.00000  Uiso   1.00
H288   H     0.39719   0.66412   0.04323   0.00000  Uiso   1.00
H289   H     0.36021   0.67691   0.12658   0.00000  Uiso   1.00
H290   H     0.18369   0.38306   0.20307   0.00000  Uiso   1.00
H291   H     0.12164   0.43510   0.16773   0.00000  Uiso   1.00
H292   H     0.21764   0.49986   0.22757   0.00000  Uiso   1.00
H293   H     0.57475   0.64972  -0.02983   0.00000  Uiso   1.00
H294   H     0.55449   0.59557   0.04647   0.00000  Uiso   1.00
H295   H     0.45382   0.57779   0.00173   0.00000  Uiso   1.00
H296   H     0.36418   0.36118   0.89102   0.00000  Uiso   1.00
H297   H     0.42470   0.48483   0.86309   0.00000  Uiso   1.00
H298   H     0.34932   0.44285   0.94075   0.00000  Uiso   1.00
H299   H     0.41413   0.34132   0.36124   0.00000  Uiso   1.00
H300   H     0.35480   0.33497   0.44053   0.00000  Uiso   1.00
H301   H     0.31268   0.22017   0.39737   0.00000  Uiso   1.00
H302   H     0.60483   0.44968   0.41818   0.00000  Uiso   1.00
H303   H     0.63952   0.39756   0.47536   0.00000  Uiso   1.00
H304   H     0.57546   0.44679   0.50552   0.00000  Uiso   1.00
H305   H     0.19996   0.40806   0.60534   0.00000  Uiso   1.00
H306   H     0.29288   0.41592   0.55619   0.00000  Uiso   1.00
H307   H     0.26196   0.49702   0.54047   0.00000  Uiso   1.00
H308   H     0.44162   0.69792   0.58372   0.00000  Uiso   1.00
H309   H     0.48196   0.62384   0.55079   0.00000  Uiso   1.00
H310   H     0.53226   0.69738   0.63085   0.00000  Uiso   1.00
H311   H     0.61037   0.61836   0.66494   0.00000  Uiso   1.00
H312   H     0.63421   0.55197   0.72737   0.00000  Uiso   1.00
H313   H     0.58741   0.62134   0.75160   0.00000  Uiso   1.00
H314   H     0.50800   0.39215   0.62189   0.00000  Uiso   1.00
H315   H     0.46257   0.45881   0.58116   0.00000  Uiso   1.00
H316   H     0.38075   0.33793   0.62300   0.00000  Uiso   1.00
H317   H     0.20264   0.72986   0.23563   0.00000  Uiso   1.00
H318   H     0.27135   0.76919   0.15168   0.00000  Uiso   1.00
H319   H     0.17016   0.78606   0.17279   0.00000  Uiso   1.00
H320   H     0.45676   0.96923   0.50737   0.00000  Uiso   1.00
H321   H     0.46924   1.04428   0.57007   0.00000  Uiso   1.00
H322   H     0.38347   1.00988   0.50888   0.00000  Uiso   1.00
H323   H     0.29110   0.69418   0.31463   0.00000  Uiso   1.00
H324   H     0.37463   0.66684   0.30508   0.00000  Uiso   1.00
H325   H     0.32931   0.67981   0.22952   0.00000  Uiso   1.00
H326   H     0.46413   0.88866   0.38818   0.00000  Uiso   1.00
H327   H     0.58200   0.97173   0.34349   0.00000  Uiso   1.00
H328   H     0.54937   0.85584   0.37958   0.00000  Uiso   1.00
H329   H     0.54280   0.78790   0.18962   0.00000  Uiso   1.00
H330   H     0.62227   0.89452   0.24056   0.00000  Uiso   1.00
H331   H     0.57225   0.90829   0.16484   0.00000  Uiso   1.00
H332   H     0.38555   0.75436   0.88161   0.00000  Uiso   1.00
H333   H     0.35972   0.79453   0.95751   0.00000  Uiso   1.00
H334   H     0.46304   0.87923   0.90787   0.00000  Uiso   1.00
H335   H     0.30304   0.89347   0.96984   0.00000  Uiso   1.00
H336   H     0.21730   0.88304   0.90815   0.00000  Uiso   1.00
H337   H     0.34814   0.99251   0.89863   0.00000  Uiso   1.00
H338   H     0.14476   0.95457   1.10033   0.00000  Uiso   1.00
H339   H     0.23400   0.98863   1.02695   0.00000  Uiso   1.00
H340   H     0.21180   0.90233   1.09465   0.00000  Uiso   1.00
H341   H     0.46778   0.75313   0.71745   0.00000  Uiso   1.00
H342   H     0.47318   0.82662   0.78504   0.00000  Uiso   1.00
H343   H     0.58100   0.86069   0.73572   0.00000  Uiso   1.00
H344   H     0.65857   0.96694   0.62406   0.00000  Uiso   1.00
H345   H     0.58924   0.99350   0.56892   0.00000  Uiso   1.00
H346   H     0.57454   0.87797   0.56804   0.00000  Uiso   1.00
H347   H     0.75579   0.01737   0.13796   0.00000  Uiso   1.00
H348   H     0.75006  -0.00997   0.04580   0.00000  Uiso   1.00
H349   H     0.86639   0.09243   0.07930   0.00000  Uiso   1.00
H350   H     0.91120  -0.02517   0.22033   0.00000  Uiso   1.00
H351   H     0.98680   0.07750   0.15391   0.00000  Uiso   1.00
H352   H     0.97762  -0.03012   0.15258   0.00000  Uiso   1.00
H353   H     0.76510   0.78573   0.17358   0.00000  Uiso   1.00
H354   H     0.68686   0.77709   0.10921   0.00000  Uiso   1.00
H355   H     0.69813   0.82908   0.19040   0.00000  Uiso   1.00
H356   H     1.10870   0.23718   0.26693   0.00000  Uiso   1.00
H357   H     1.03533   0.09747   0.27812   0.00000  Uiso   1.00
H358   H     1.08348   0.17251   0.34780   0.00000  Uiso   1.00
H359   H     0.87240   0.12249   0.21091   0.00000  Uiso   1.00
H360   H     0.95386   0.25242   0.21677   0.00000  Uiso   1.00
H361   H     0.82569   0.18655   0.25491   0.00000  Uiso   1.00
H362   H     0.87459   0.01430   0.39455   0.00000  Uiso   1.00
H363   H     0.80904  -0.01357   0.31870   0.00000  Uiso   1.00
H364   H     0.78069   0.03726   0.38246   0.00000  Uiso   1.00
H365   H     0.72331   0.15589   0.93432   0.00000  Uiso   1.00
H366   H     0.61314   0.04581   0.95844   0.00000  Uiso   1.00
H367   H     0.65175   0.14882   1.00356   0.00000  Uiso   1.00
H368   H     0.97617   0.19471   0.66837   0.00000  Uiso   1.00
H369   H     1.01379   0.25316   0.58325   0.00000  Uiso   1.00
H370   H     1.09350   0.25649   0.64172   0.00000  Uiso   1.00
H371   H     0.96403   0.30241   0.71118   0.00000  Uiso   1.00
H372   H     0.94129   0.39356   0.69163   0.00000  Uiso   1.00
H373   H     0.96218   0.35114   0.61964   0.00000  Uiso   1.00
H374   H     0.68287   0.14320   0.59231   0.00000  Uiso   1.00
H375   H     0.79522   0.16704   0.57005   0.00000  Uiso   1.00
H376   H     0.79136   0.26616   0.56960   0.00000  Uiso   1.00
H377   H     0.70568   0.05942   0.73590   0.00000  Uiso   1.00
H378   H     0.83147   0.12935   0.76123   0.00000  Uiso   1.00
H379   H     0.80737   0.07039   0.68435   0.00000  Uiso   1.00
H380   H     0.70442   0.36877   0.19069   0.00000  Uiso   1.00
H381   H     0.78327   0.48909   0.22966   0.00000  Uiso   1.00
H382   H     0.79481   0.48213   0.14418   0.00000  Uiso   1.00
H383   H     0.68320   0.57529   0.08324   0.00000  Uiso   1.00
H384   H     0.75797   0.63722   0.15665   0.00000  Uiso   1.00
H385   H     0.62903   0.59502   0.15629   0.00000  Uiso   1.00
H386   H     0.53807   0.37155   0.27256   0.00000  Uiso   1.00
H387   H     0.52995   0.47093   0.24226   0.00000  Uiso   1.00
H388   H     0.63643   0.50196   0.28321   0.00000  Uiso   1.00
H389   H     0.79890   0.36134   0.04514   0.00000  Uiso   1.00
H390   H     0.77441   0.31622  -0.03623   0.00000  Uiso   1.00
H391   H     0.68208   0.31666   0.00578   0.00000  Uiso   1.00
H392   H     0.86643   0.62675  -0.03687   0.00000  Uiso   1.00
H393   H     0.90160   0.58588   0.03303   0.00000  Uiso   1.00
H394   H     0.77429   0.54314   0.02848   0.00000  Uiso   1.00
H395   H     0.86441   0.31946   0.44192   0.00000  Uiso   1.00
H396   H     0.96127   0.43232   0.45683   0.00000  Uiso   1.00
H397   H     0.95098   0.32300   0.49370   0.00000  Uiso   1.00
H398   H     1.01681   0.41590   0.25590   0.00000  Uiso   1.00
H399   H     1.00408   0.49000   0.30720   0.00000  Uiso   1.00
H400   H     0.90240   0.35827   0.29992   0.00000  Uiso   1.00
H401   H     1.18785   0.43806   0.34081   0.00000  Uiso   1.00
H402   H     1.15938   0.38101   0.42416   0.00000  Uiso   1.00
H403   H     1.17330   0.49044   0.41839   0.00000  Uiso   1.00
H404   H     0.64957   0.33497   0.74834   0.00000  Uiso   1.00
H405   H     0.74857   0.39298   0.68457   0.00000  Uiso   1.00
H406   H     0.74877   0.44973   0.76441   0.00000  Uiso   1.00
H407   H     0.80895   0.72828   0.02121   0.00000  Uiso   1.00
H408   H     0.74100   0.69131  -0.05803   0.00000  Uiso   1.00
H409   H     0.71334   0.72042   0.02156   0.00000  Uiso   1.00
H410   H     0.90982   0.52310   0.65155   0.00000  Uiso   1.00
H411   H     0.96732   0.51684   0.56817   0.00000  Uiso   1.00
H412   H     0.84281   0.44417   0.58930   0.00000  Uiso   1.00
H413   H     0.93140   0.56963   0.43207   0.00000  Uiso   1.00
H414   H     0.84762   0.60285   0.42539   0.00000  Uiso   1.00
H415   H     0.80640   0.48591   0.45222   0.00000  Uiso   1.00
H416   H     0.80496   0.64088   0.62466   0.00000  Uiso   1.00
H417   H     0.72612   0.51281   0.59860   0.00000  Uiso   1.00
H418   H     0.75364   0.61617   0.54505   0.00000  Uiso   1.00
H419   H     0.84973   0.60886   0.71807   0.00000  Uiso   1.00
H420   H     0.90016   0.59481   0.79242   0.00000  Uiso   1.00
H421   H     0.97129   0.70918   0.74657   0.00000  Uiso   1.00
H422   H     0.80200   0.81018   0.79349   0.00000  Uiso   1.00
H423   H     0.77881   0.73369   0.71661   0.00000  Uiso   1.00
H424   H     0.89986   0.83038   0.73354   0.00000  Uiso   1.00
H425   H     0.64205   0.70470   0.87227   0.00000  Uiso   1.00
H426   H     0.64114   0.76626   0.80058   0.00000  Uiso   1.00
H427   H     0.53538   0.69948   0.86315   0.00000  Uiso   1.00
H428   H     0.71861   0.96738   0.81258   0.00000  Uiso   1.00
H429   H     0.69869   1.01243   0.88481   0.00000  Uiso   1.00
H430   H     0.59951   0.91455   0.84629   0.00000  Uiso   1.00
H431   H     0.51277   0.77546   0.96452   0.00000  Uiso   1.00
H432   H     0.60004   0.88854   1.01226   0.00000  Uiso   1.00
H433   H     0.59624   0.77967   1.02453   0.00000  Uiso   1.00
loop_
_geom_bond_atom_site_label_1
_geom_bond_atom_site_label_2
_geom_bond_distance
_geom_bond_site_symmetry_2
_ccdc_geom_bond_type
Si1    C52     1.882   .     S
Si1    O64     1.603   .     S
Si1    O56     1.559   1_554 S
Si1    O103    1.594   1_554 S
Si2    C53     1.797   .     S
Si2    O95     1.590   .     S
Si2    O78     1.625   1_545 S
Si2    O82     1.591   1_545 S
Si3    C54     1.889   .     S
Si3    O60     1.603   .     S
Si3    C55     1.894   1_455 S
Si3    C157    1.864   1_455 S
Si4    O61     1.633   .     S
Si4    O101    1.663   .     S
Si4    O86     1.615   1_545 S
Si4    O89     1.598   1_545 S
Si5    O56     1.552   .     S
Si5    C57     1.837   .     S
Si5    C58     1.809   1_455 S
Si5    C59     1.870   1_455 S
Si6    O60     1.596   .     S
Si6    O61     1.644   .     S
Si6    C62     1.930   .     S
Si6    O96     1.644   .     S
Si7    C63     1.890   .     S
Si7    O64     1.604   .     S
Si7    O65     1.576   .     S
Si7    O109    1.597   .     S
Si8    O65     1.645   .     S
Si8    C66     1.934   .     S
Si8    C67     1.831   1_554 S
Si8    O68     1.574   1_554 S
Si9    O68     1.611   .     S
Si9    O83     1.568   .     S
Si9    O165    1.598   1_455 S
Si9    O175    1.655   1_455 S
Si10   C69     1.832   .     S
Si10   C70     1.862   .     S
Si10   O84     1.586   .     S
Si10   O122    1.622   .     S
Si11   C71     1.843   .     S
Si11   O80     1.582   .     S
Si11   C72     1.830   1_455 S
Si11   C73     1.850   1_455 S
Si12   C74     1.920   .     S
Si12   C75     1.897   .     S
Si12   O85     1.608   1_554 S
Si12   C143    1.868   1_554 S
Si13   C76     1.845   .     S
Si13   C77     1.866   .     S
Si13   O81     1.565   .     S
Si13   O132    1.603   .     S
Si14   O78     1.586   .     S
Si14   O87     1.596   .     S
Si14   C79     1.859   1_455 S
Si14   O185    1.577   1_455 S
Si15   O80     1.606   .     S
Si15   O81     1.544   .     S
Si15   O82     1.587   .     S
Si15   O131    1.605   .     S
Si16   O83     1.652   .     S
Si16   O84     1.574   .     S
Si16   O88     1.583   .     S
Si16   O139    1.577   .     S
Si17   O85     1.573   .     S
Si17   O86     1.611   .     S
Si17   O179    1.602   1_455 S
Si17   O189    1.581   1_455 S
Si18   O87     1.608   .     S
Si18   O88     1.597   .     S
Si18   O89     1.612   .     S
Si18   O134    1.617   .     S
Si19   C90     1.906   .     S
Si19   O94     1.618   .     S
Si19   C91     1.938   1_545 S
Si19   O130    1.612   1_545 S
Si20   C92     1.848   .     S
Si20   C93     1.846   .     S
Si20   C97     1.879   .     S
Si20   O107    1.578   .     S
Si21   O94     1.629   .     S
Si21   O108    1.622   .     S
Si21   O102    1.646   1_554 S
Si21   O156    1.622   1_554 S
Si22   O95     1.599   .     S
Si22   O96     1.594   .     S
Si22   O104    1.593   .     S
Si22   O116    1.633   .     S
Si23   C98     1.820   .     S
Si23   C99     1.880   .     S
Si23   C100    1.867   .     S
Si23   O117    1.597   .     S
Si24   O105    1.604   .     S
Si24   O154    1.612   .     S
Si24   O141    1.642   1_545 S
Si24   O146    1.614   1_545 S
Si25   O101    1.622   .     S
Si25   O102    1.635   .     S
Si25   O103    1.608   .     S
Si25   O123    1.622   .     S
Si26   O104    1.621   .     S
Si26   O105    1.588   .     S
Si26   C106    1.865   .     S
Si26   O124    1.574   .     S
Si27   O107    1.638   .     S
Si27   O108    1.563   .     S
Si27   O113    1.617   .     S
Si27   O161    1.589   .     S
Si28   O109    1.630   .     S
Si28   C110    1.915   .     S
Si28   C111    1.868   .     S
Si28   C112    1.884   .     S
Si29   O113    1.563   .     S
Si29   C114    1.831   .     S
Si29   C115    1.816   1_554 S
Si29   O178    1.556   1_554 S
Si30   O116    1.575   .     S
Si30   O117    1.566   .     S
Si30   C118    1.863   .     S
Si30   C119    1.941   .     S
Si31   C120    1.920   .     S
Si31   C121    1.888   .     S
Si31   O122    1.566   .     S
Si31   O125    1.644   .     S
Si32   O123    1.625   .     S
Si32   O124    1.611   .     S
Si32   O126    1.593   .     S
Si32   O176    1.613   .     S
Si33   O125    1.595   .     S
Si33   O126    1.597   .     S
Si33   C127    1.806   .     S
Si33   C128    1.841   .     S
Si34   C129    1.872   .     S
Si34   O130    1.618   .     S
Si34   O131    1.608   .     S
Si34   O135    1.571   .     S
Si35   O132    1.649   .     S
Si35   C133    1.895   .     S
Si35   O134    1.564   .     S
Si35   O144    1.579   .     S
Si36   O135    1.635   .     S
Si36   C136    1.851   .     S
Si36   C137    1.936   .     S
Si36   C138    1.875   .     S
Si37   O139    1.614   .     S
Si37   C140    1.937   .     S
Si37   O141    1.574   .     S
Si37   C142    1.778   .     S
Si38   O144    1.590   .     S
Si38   C145    1.832   .     S
Si38   O146    1.600   .     S
Si38   C147    1.874   .     S
Si39   C148    1.822   .     S
Si39   C149    1.837   .     S
Si39   C150    1.881   1_545 S
Si39   O181    1.581   1_545 S
Si40   C151    1.878   .     S
Si40   C152    1.837   .     S
Si40   C153    1.933   .     S
Si40   O169    1.560   .     S
Si41   O154    1.648   .     S
Si41   C155    1.858   .     S
Si41   O156    1.665   .     S
Si41   O172    1.611   .     S
Si42   C158    1.804   .     S
Si42   C159    1.804   .     S
Si42   C160    1.887   .     S
Si42   O173    1.598   .     S
Si43   O161    1.638   .     S
Si43   C162    1.859   .     S
Si43   C163    1.840   .     S
Si43   C164    1.798   .     S
Si44   C166    1.891   .     S
Si44   C167    1.796   .     S
Si44   O165    1.564   1_554 S
Si44   O177    1.585   1_554 S
Si45   C168    1.821   .     S
Si45   O169    1.621   .     S
Si45   C170    1.890   .     S
Si45   C171    1.928   .     S
Si46   O172    1.651   .     S
Si46   O173    1.553   .     S
Si46   C174    1.817   .     S
Si46   O175    1.631   .     S
Si47   O176    1.580   .     S
Si47   O177    1.661   .     S
Si47   O178    1.598   .     S
Si47   O186    1.613   .     S
Si48   C180    1.838   .     S
Si48   O181    1.592   .     S
Si48   O179    1.593   1_554 S
Si48   O191    1.591   1_554 S
Si49   C182    1.883   .     S
Si49   C183    1.870   .     S
Si49   C184    1.860   .     S
Si49   O185    1.551   .     S
Si50   O186    1.660   .     S
Si50   C187    1.874   .     S
Si50   C188    1.842   .     S
Si50   O189    1.654   .     S
Si51   C190    1.876   .     S
Si51   O191    1.670   .     S
Si51   C192    1.855   .     S
Si51   C193    1.860   .     S
C52    H194    1.159   .     S
C52    H195    1.071   .     S
C52    H196    1.070   .     S
C53    H197    1.104   .     S
C53    H198    1.138   .     S
C53    H199    1.122   .     S
C54    H200    1.116   .     S
C54    H201    1.066   .     S
C54    H202    1.110   .     S
C55    H203    1.035   .     S
C55    H204    1.065   .     S
C55    H205    1.129   .     S
C55    Si3     1.894   1_655 S
O56    Si1     1.559   1_556 S
C57    H206    1.128   .     S
C57    H207    1.118   .     S
C57    H208    1.133   .     S
C58    H209    1.108   .     S
C58    H210    1.110   .     S
C58    H211    1.138   .     S
C58    Si5     1.809   1_655 S
C59    H212    1.053   .     S
C59    H213    1.173   .     S
C59    H214    1.128   .     S
C59    Si5     1.870   1_655 S
C62    H215    1.079   .     S
C62    H216    1.057   .     S
C62    H217    1.110   .     S
C63    H218    1.078   .     S
C63    H219    1.080   .     S
C63    H220    1.081   .     S
C66    H221    1.105   .     S
C66    H222    1.062   .     S
C66    H223    1.080   .     S
C67    H224    1.128   .     S
C67    H225    1.073   .     S
C67    H226    1.047   .     S
C67    Si8     1.831   1_556 S
O68    Si8     1.574   1_556 S
C69    H227    1.084   .     S
C69    H228    1.102   .     S
C69    H229    1.147   .     S
C70    H230    1.089   .     S
C70    H231    1.072   .     S
C70    H232    1.104   .     S
C71    H233    1.136   .     S
C71    H234    1.084   .     S
C71    H235    1.112   .     S
C72    H236    1.138   .     S
C72    H237    1.123   .     S
C72    H238    1.085   .     S
C72    Si11    1.830   1_655 S
C73    H239    1.184   .     S
C73    H240    1.105   .     S
C73    H241    1.130   .     S
C73    Si11    1.850   1_655 S
C74    H242    1.086   .     S
C74    H243    1.130   .     S
C74    H244    1.041   .     S
C75    H245    1.135   .     S
C75    H246    1.125   .     S
C75    H247    1.131   .     S
C76    H248    1.095   .     S
C76    H249    1.095   .     S
C76    H250    1.138   .     S
C77    H251    1.102   .     S
C77    H252    1.033   .     S
C77    H253    1.089   .     S
O78    Si2     1.625   1_565 S
C79    H254    1.100   .     S
C79    H255    1.166   .     S
C79    H256    1.091   .     S
C79    Si14    1.859   1_655 S
O82    Si2     1.591   1_565 S
O85    Si12    1.608   1_556 S
O86    Si4     1.615   1_565 S
O89    Si4     1.598   1_565 S
C90    H257    1.020   .     S
C90    H258    1.098   .     S
C90    H259    1.098   .     S
C91    H260    1.104   .     S
C91    H261    1.116   .     S
C91    H262    1.102   .     S
C91    Si19    1.938   1_565 S
C92    H263    1.118   .     S
C92    H264    1.146   .     S
C92    H265    1.071   .     S
C93    H266    1.078   .     S
C93    H267    1.086   .     S
C93    H268    1.131   .     S
C97    H269    1.133   .     S
C97    H270    1.091   .     S
C97    H271    1.077   .     S
C98    H272    1.105   .     S
C98    H273    1.152   .     S
C98    H274    1.072   .     S
C99    H275    1.094   .     S
C99    H276    1.090   .     S
C99    H277    1.047   .     S
C100   H278    1.105   .     S
C100   H279    1.144   .     S
C100   H280    1.107   .     S
O102   Si21    1.646   1_556 S
O103   Si1     1.594   1_556 S
C106   H281    1.081   .     S
C106   H282    1.079   .     S
C106   H283    1.110   .     S
C110   H284    1.105   .     S
C110   H285    1.079   .     S
C110   H286    1.133   .     S
C111   H287    1.078   .     S
C111   H288    1.135   .     S
C111   H289    1.118   .     S
C112   H290    1.116   .     S
C112   H291    1.105   .     S
C112   H292    1.132   .     S
C114   H293    1.087   .     S
C114   H294    1.087   .     S
C114   H295    1.112   .     S
C115   H296    1.123   .     S
C115   H297    1.080   .     S
C115   H298    1.119   .     S
C115   Si29    1.816   1_556 S
C118   H299    1.138   .     S
C118   H300    1.097   .     S
C118   H301    1.159   .     S
C119   H302    1.039   .     S
C119   H303    1.081   .     S
C119   H304    1.134   .     S
C120   H305    1.101   .     S
C120   H306    1.135   .     S
C120   H307    1.103   .     S
C121   H308    1.167   .     S
C121   H309    1.124   .     S
C121   H310    1.082   .     S
C127   H311    1.111   .     S
C127   H312    1.100   .     S
C127   H313    1.089   .     S
C128   H314    1.082   .     S
C128   H315    1.126   .     S
C128   H316    1.146   .     S
C129   H317    1.126   .     S
C129   H318    1.168   .     S
C129   H319    1.166   .     S
O130   Si19    1.612   1_565 S
C133   H320    1.058   .     S
C133   H321    1.057   .     S
C133   H322    1.101   .     S
C136   H323    1.145   .     S
C136   H324    1.087   .     S
C136   H325    1.071   .     S
C137   H326    1.088   .     S
C137   H327    1.117   .     S
C137   H328    1.135   .     S
C138   H329    1.127   .     S
C138   H330    1.086   .     S
C138   H331    1.143   .     S
C140   H332    1.086   .     S
C140   H333    1.100   .     S
C140   H334    1.108   .     S
O141   Si24    1.642   1_565 S
C142   H335    1.120   .     S
C142   H336    1.093   .     S
C142   H337    1.155   .     S
C143   H338    1.102   .     S
C143   H339    1.098   .     S
C143   H340    1.142   .     S
C143   Si12    1.868   1_556 S
C145   H341    1.067   .     S
C145   H342    1.068   .     S
C145   H343    1.144   .     S
O146   Si24    1.614   1_565 S
C147   H344    1.149   .     S
C147   H345    1.120   .     S
C147   H346    1.121   .     S
C148   H347    1.138   .     S
C148   H348    1.120   .     S
C148   H349    1.115   .     S
C149   H350    1.108   .     S
C149   H351    1.100   .     S
C149   H352    1.061   .     S
C150   H353    1.089   .     S
C150   H354    1.066   .     S
C150   H355    1.125   .     S
C150   Si39    1.881   1_565 S
C151   H356    1.157   .     S
C151   H357    1.159   .     S
C151   H358    1.067   .     S
C152   H359    1.088   .     S
C152   H360    1.097   .     S
C152   H361    1.218   .     S
C153   H362    1.119   .     S
C153   H363    1.105   .     S
C153   H364    1.072   .     S
C155   H365    1.025   .     S
C155   H366    1.073   .     S
C155   H367    1.117   .     S
O156   Si21    1.622   1_556 S
C157   H368    1.097   .     S
C157   H369    1.109   .     S
C157   H370    1.056   .     S
C157   Si3     1.864   1_655 S
C158   H371    1.141   .     S
C158   H372    1.102   .     S
C158   H373    1.130   .     S
C159   H374    1.110   .     S
C159   H375    1.131   .     S
C159   H376    1.089   .     S
C160   H377    1.153   .     S
C160   H378    1.080   .     S
C160   H379    1.117   .     S
C162   H380    1.093   .     S
C162   H381    1.147   .     S
C162   H382    1.118   .     S
C163   H383    1.103   .     S
C163   H384    1.116   .     S
C163   H385    1.131   .     S
C164   H386    1.130   .     S
C164   H387    1.113   .     S
C164   H388    1.116   .     S
O165   Si9     1.598   1_655 S
O165   Si44    1.564   1_556 S
C166   H389    1.107   .     S
C166   H390    1.081   .     S
C166   H391    1.105   .     S
C167   H392    1.057   .     S
C167   H393    1.104   .     S
C167   H394    1.114   .     S
C168   H395    1.101   .     S
C168   H396    1.086   .     S
C168   H397    1.109   .     S
C170   H398    1.037   .     S
C170   H399    1.173   .     S
C170   H400    1.175   .     S
C171   H401    1.082   .     S
C171   H402    1.111   .     S
C171   H403    1.102   .     S
C174   H404    1.111   .     S
C174   H405    1.096   .     S
C174   H406    1.049   .     S
O175   Si9     1.655   1_655 S
O177   Si44    1.585   1_556 S
O178   Si29    1.556   1_556 S
O179   Si17    1.602   1_655 S
O179   Si48    1.593   1_556 S
C180   H407    1.063   .     S
C180   H408    1.150   .     S
C180   H409    1.083   .     S
O181   Si39    1.581   1_565 S
C182   H410    1.129   .     S
C182   H411    1.141   .     S
C182   H412    1.056   .     S
C183   H413    1.130   .     S
C183   H414    1.114   .     S
C183   H415    1.070   .     S
C184   H416    1.083   .     S
C184   H417    1.128   .     S
C184   H418    1.087   .     S
O185   Si14    1.577   1_655 S
C187   H419    1.076   .     S
C187   H420    1.123   .     S
C187   H421    1.116   .     S
C188   H422    1.103   .     S
C188   H423    1.108   .     S
C188   H424    1.134   .     S
O189   Si17    1.581   1_655 S
C190   H425    1.079   .     S
C190   H426    1.117   .     S
C190   H427    1.120   .     S
O191   Si48    1.591   1_556 S
C192   H428    1.042   .     S
C192   H429    1.111   .     S
C192   H430    1.061   .     S
C193   H431    1.171   .     S
C193   H432    1.147   .     S
C193   H433    1.114   .     S
