data_333-13-11-12-15-30-15
_audit_creation_date              2025-03-07
_audit_creation_method            'Materials Studio'
_symmetry_space_group_name_H-M    'P1'
_symmetry_Int_Tables_number       1
_symmetry_cell_setting            triclinic
loop_
_symmetry_equiv_pos_as_xyz
  x,y,z
_cell_length_a                    16.7868
_cell_length_b                    17.7618
_cell_length_c                    17.6604
_cell_angle_alpha                 89.5066
_cell_angle_beta                  87.2218
_cell_angle_gamma                 122.3034
loop_
_atom_site_label
_atom_site_type_symbol
_atom_site_fract_x
_atom_site_fract_y
_atom_site_fract_z
_atom_site_U_iso_or_equiv
_atom_site_adp_type
_atom_site_occupancy
Si1    Si    0.12778  -0.06001   0.09368   0.00000  Uiso   1.00
Si2    Si    0.13492  -0.07417   0.41646   0.00000  Uiso   1.00
Si3    Si    0.12238  -0.05565   0.76900   0.00000  Uiso   1.00
Si4    Si   -0.05237   0.49205   0.20676   0.00000  Uiso   1.00
Si5    Si    0.20021   0.50949  -0.10202   0.00000  Uiso   1.00
Si6    Si    0.07052   0.56259   0.52010   0.00000  Uiso   1.00
Si7    Si    0.10198   0.46096   0.24661   0.00000  Uiso   1.00
Si8    Si    0.11340   0.35215   0.69753   0.00000  Uiso   1.00
Si9    Si    0.03617   0.52075   0.85445   0.00000  Uiso   1.00
Si10   Si    0.18508   0.54410   0.64524   0.00000  Uiso   1.00
Si11   Si   -0.00347   0.78070   0.21046   0.00000  Uiso   1.00
Si12   Si    0.16889   0.82862  -0.01697   0.00000  Uiso   1.00
Si13   Si    0.21360   0.72327   0.42032   0.00000  Uiso   1.00
Si14   Si   -0.01325   0.80491   0.54967   0.00000  Uiso   1.00
Si15   Si    0.15225   0.80427   0.30289   0.00000  Uiso   1.00
Si16   Si    0.17266   0.68235   0.74968   0.00000  Uiso   1.00
Si17   Si    0.01250   0.79957   0.89683   0.00000  Uiso   1.00
Si18   Si    0.13737   0.81456   0.65661   0.00000  Uiso   1.00
Si19   Si    0.33595   0.15721   0.57919   0.00000  Uiso   1.00
Si20   Si    0.47268   0.03391   0.79996   0.00000  Uiso   1.00
Si21   Si    0.22836   0.14209   0.81186   0.00000  Uiso   1.00
Si22   Si    0.45746   0.17131   0.70807   0.00000  Uiso   1.00
Si23   Si    0.49290   0.33890   0.20307   0.00000  Uiso   1.00
Si24   Si    0.33416   0.35060   0.14147   0.00000  Uiso   1.00
Si25   Si    0.36819   0.54835   0.57681   0.00000  Uiso   1.00
Si26   Si    0.52894   0.53208   0.35103   0.00000  Uiso   1.00
Si27   Si    0.41588   0.30843   0.75548   0.00000  Uiso   1.00
Si28   Si    0.48574   0.47888   0.64793   0.00000  Uiso   1.00
Si29   Si    0.35867   0.91204   0.23811   0.00000  Uiso   1.00
Si30   Si    0.44928   0.82599  -0.03535   0.00000  Uiso   1.00
Si31   Si    0.30691   0.84889   0.54667   0.00000  Uiso   1.00
Si32   Si    0.31287   0.84129   0.85757   0.00000  Uiso   1.00
Si33   Si    0.59209   0.96897   0.72906   0.00000  Uiso   1.00
Si34   Si    0.67137   0.11695   0.35805   0.00000  Uiso   1.00
Si35   Si    0.75268   0.18794   0.01924   0.00000  Uiso   1.00
Si36   Si    0.92366  -0.00287   0.36742   0.00000  Uiso   1.00
Si37   Si    0.81339   0.30939   0.57806   0.00000  Uiso   1.00
Si38   Si    0.87916   0.25810   0.36301   0.00000  Uiso   1.00
Si39   Si    0.57993   0.15369   0.92684   0.00000  Uiso   1.00
Si40   Si    0.77180   0.32841   0.13508   0.00000  Uiso   1.00
Si41   Si    0.67280   0.50849   0.25401   0.00000  Uiso   1.00
Si42   Si    0.90275   0.42330   0.43122   0.00000  Uiso   1.00
Si43   Si    0.67123   0.51657   0.55676   0.00000  Uiso   1.00
Si44   Si    0.83975   0.52475   0.33527   0.00000  Uiso   1.00
Si45   Si    0.82809   0.64368   0.13116   0.00000  Uiso   1.00
Si46   Si    0.71107   0.79738   0.23393   0.00000  Uiso   1.00
Si47   Si    0.82758   0.75083  -0.00651   0.00000  Uiso   1.00
Si48   Si    0.84107   0.66482   0.44055   0.00000  Uiso   1.00
Si49   Si    0.87327   0.80991   0.32325   0.00000  Uiso   1.00
Si50   Si    0.66300   0.58591   0.93619   0.00000  Uiso   1.00
Si51   Si    0.82792   0.84147   0.60808   0.00000  Uiso   1.00
C52    C     0.08382   0.00118   0.04058   0.00000  Uiso   1.00
C53    C     0.21640   0.02791   0.15496   0.00000  Uiso   1.00
C54    C     0.12621   0.00316   0.35334   0.00000  Uiso   1.00
C55    C     0.01932  -0.06496   0.72371   0.00000  Uiso   1.00
C56    C     0.03629   0.57933   0.14092   0.00000  Uiso   1.00
C57    C     0.18692   0.40426  -0.06856   0.00000  Uiso   1.00
C58    C     0.21493   0.56921  -0.01790   0.00000  Uiso   1.00
C59    C     0.30597   0.57841   0.82844   0.00000  Uiso   1.00
C60    C     0.99362   0.57360   0.58089   0.00000  Uiso   1.00
O61    O     0.00771   0.46299   0.25103   0.00000  Uiso   1.00
C62    C     0.12143   0.41763   0.33655   0.00000  Uiso   1.00
C63    C     0.11660   0.41062   0.16413   0.00000  Uiso   1.00
C64    C     0.00615   0.25710   0.75834   0.00000  Uiso   1.00
C65    C     0.11660   0.31024   0.60027   0.00000  Uiso   1.00
C66    C     0.22438   0.36920   0.73327   0.00000  Uiso   1.00
O67    O     0.10231   0.48461   0.86661   0.00000  Uiso   1.00
C68    C     0.96880   0.51012   0.94134   0.00000  Uiso   1.00
C69    C     0.95055   0.45295   0.78583   0.00000  Uiso   1.00
O70    O     0.13733   0.53830   0.56560   0.00000  Uiso   1.00
O71    O     0.12490   0.44823   0.69034   0.00000  Uiso   1.00
O72    O     0.03745   0.85442   0.14279   0.00000  Uiso   1.00
C73    C     0.18010   0.75346   0.04851   0.00000  Uiso   1.00
O74    O     0.17693   0.90934   0.03383   0.00000  Uiso   1.00
O75    O     0.13173   0.65778   0.47845   0.00000  Uiso   1.00
C76    C     0.20595   0.58009   0.23645   0.00000  Uiso   1.00
C77    C     0.28542   0.67450   0.39949   0.00000  Uiso   1.00
O78    O     0.06789   0.88634   0.49412   0.00000  Uiso   1.00
O79    O     0.08011   0.76846   0.24019   0.00000  Uiso   1.00
O80    O     0.17050   0.73703   0.34422   0.00000  Uiso   1.00
O81    O     0.11634   0.84319   0.36877   0.00000  Uiso   1.00
O82    O     0.09924   0.62036   0.81747   0.00000  Uiso   1.00
O83    O     0.20542   0.62784   0.69733   0.00000  Uiso   1.00
O84    O     0.07005   0.77694   0.94782   0.00000  Uiso   1.00
O85    O     0.07862   0.89153   0.84836   0.00000  Uiso   1.00
C86    C     0.94453   0.70801   0.83250   0.00000  Uiso   1.00
O87    O     0.04115   0.78565   0.61617   0.00000  Uiso   1.00
O88    O     0.12594   0.72313   0.69836   0.00000  Uiso   1.00
O89    O     0.15896   0.89216   0.71529   0.00000  Uiso   1.00
C90    C     0.26024  -0.01151   0.42683   0.00000  Uiso   1.00
C91    C     0.41753   0.17578   0.49783   0.00000  Uiso   1.00
C92    C     0.33631   0.26031   0.56649   0.00000  Uiso   1.00
C93    C     0.20990   0.07002   0.57002   0.00000  Uiso   1.00
O94    O     0.19870   0.04800   0.77260   0.00000  Uiso   1.00
C95    C     0.27982   0.13347   0.90022   0.00000  Uiso   1.00
C96    C     0.11956   0.13675   0.83898   0.00000  Uiso   1.00
O97    O     0.37605   0.14493   0.65438   0.00000  Uiso   1.00
O98    O     0.43902   0.09611   0.76972   0.00000  Uiso   1.00
C99    C     0.43633   0.25996   0.28508   0.00000  Uiso   1.00
C100   C     0.48583   0.26546   0.12846   0.00000  Uiso   1.00
O101   O     0.42870   0.37144   0.17613   0.00000  Uiso   1.00
C102   C     0.34763   0.45807   0.11528   0.00000  Uiso   1.00
C103   C     0.23183   0.27820   1.21034   0.00000  Uiso   1.00
C104   C     0.31640   0.28049   1.05539   0.00000  Uiso   1.00
C105   C     0.31580   0.49679   0.48564   0.00000  Uiso   1.00
C106   C     0.46792   0.66397   0.56610   0.00000  Uiso   1.00
O107   O     0.28530   0.55068   0.62616   0.00000  Uiso   1.00
C108   C     0.44420   0.53380   0.28394   0.00000  Uiso   1.00
C109   C     0.45812   0.42935   0.41313   0.00000  Uiso   1.00
C110   C     0.57532   0.63034   0.40902   0.00000  Uiso   1.00
O111   O     0.30682   0.23102   0.76720   0.00000  Uiso   1.00
O112   O     0.47069   0.25772   0.74779   0.00000  Uiso   1.00
C113   C     0.44052   0.36868   0.84367   0.00000  Uiso   1.00
O114   O     0.40319   0.48852   0.61369   0.00000  Uiso   1.00
O115   O     0.44155   0.37551   0.67872   0.00000  Uiso   1.00
C116   C     0.53453   0.56233   0.72036   0.00000  Uiso   1.00
C117   C     0.34478   0.81796   0.18110   0.00000  Uiso   1.00
C118   C     0.43344   0.92532   0.32061   0.00000  Uiso   1.00
C119   C     0.41951   1.01738   0.17835   0.00000  Uiso   1.00
O120   O     0.25152   0.88576   0.27174   0.00000  Uiso   1.00
C121   C     0.40721   0.73890   0.04327   0.00000  Uiso   1.00
C122   C     0.51535   0.93878   0.00621   0.00000  Uiso   1.00
O123   O     0.27052   0.81163   0.46652   0.00000  Uiso   1.00
C124   C     0.40933   0.96832   0.54595   0.00000  Uiso   1.00
O125   O     0.22486   0.85036   0.59383   0.00000  Uiso   1.00
O126   O     0.26551   0.76723   0.79394   0.00000  Uiso   1.00
O127   O     0.37179   0.81510   0.90775   0.00000  Uiso   1.00
O128   O     0.38165   0.93770   0.81345   0.00000  Uiso   1.00
O129   O     0.24375   0.86045   0.91049   0.00000  Uiso   1.00
C130   C     0.35599   0.78482   0.58513   0.00000  Uiso   1.00
C131   C     0.66277   0.99076   0.63630   0.00000  Uiso   1.00
C132   C     0.51065   0.84914   0.74363   0.00000  Uiso   1.00
O133   O     0.54177   1.02379   0.74135   0.00000  Uiso   1.00
C134   C     0.69349   1.02286   0.79512   0.00000  Uiso   1.00
C135   C     0.67829   0.07801   0.26125   0.00000  Uiso   1.00
C136   C     0.62987   0.01928   0.42643   0.00000  Uiso   1.00
C137   C     0.85276   0.23267   0.93827   0.00000  Uiso   1.00
C138   C     0.75307   0.09167   0.06475   0.00000  Uiso   1.00
C139   C     0.98940   0.05694   0.45197   0.00000  Uiso   1.00
C140   C     0.81323   1.00045   0.37571   0.00000  Uiso   1.00
C141   C     0.72721   0.18678   0.55996   0.00000  Uiso   1.00
C142   C     0.91546   0.30725   0.60913   0.00000  Uiso   1.00
C143   C     0.77990   0.35370   0.65899   0.00000  Uiso   1.00
C144   C     0.55547   0.18193   0.64738   0.00000  Uiso   1.00
C145   C     0.90708   0.23241   0.26827   0.00000  Uiso   1.00
O146   O     0.77040   0.19480   0.38357   0.00000  Uiso   1.00
C147   C     0.98306   0.06214   0.27541   0.00000  Uiso   1.00
C148   C     0.95015   0.23489   0.42839   0.00000  Uiso   1.00
O149   O     0.52178   0.06712   0.87726   0.00000  Uiso   1.00
O150   O     0.65068   0.15021   0.98631   0.00000  Uiso   1.00
C151   C     0.65049   0.25796   0.86351   0.00000  Uiso   1.00
C152   C     0.48513   0.16249   0.98284   0.00000  Uiso   1.00
C153   C     0.59314   0.15731   0.37146   0.00000  Uiso   1.00
C154   C     0.69231   0.27478   0.22113   0.00000  Uiso   1.00
O155   O     0.78296   0.25892   0.08392   0.00000  Uiso   1.00
C156   C     0.71381   0.36435   0.07374   0.00000  Uiso   1.00
O157   O     0.87418   0.41446   0.15419   0.00000  Uiso   1.00
O158   O     0.59899   0.42034   0.21422   0.00000  Uiso   1.00
O159   O     0.62150   0.53930   0.31088   0.00000  Uiso   1.00
O160   O     0.83542   0.36346   0.50040   0.00000  Uiso   1.00
O161   O     0.91004   0.36154   0.36936   0.00000  Uiso   1.00
O162   O     1.00754   0.49441   0.45722   0.00000  Uiso   1.00
C163   C     0.63271   0.40248   0.52324   0.00000  Uiso   1.00
C164   C     0.73920   0.53202   0.64332   0.00000  Uiso   1.00
O165   O     0.57337   0.50686   0.58464   0.00000  Uiso   1.00
O166   O     0.90902   0.53796   0.26356   0.00000  Uiso   1.00
O167   O     0.73861   0.48816   0.30313   0.00000  Uiso   1.00
O168   O     0.84527   0.45867   0.39380   0.00000  Uiso   1.00
O169   O     0.73025   0.58506   0.18812   0.00000  Uiso   1.00
C170   C     0.84734   0.57504   0.06066   0.00000  Uiso   1.00
O171   O     0.91905   0.69196   0.18073   0.00000  Uiso   1.00
C172   C     0.63664   0.70121   0.17614   0.00000  Uiso   1.00
C173   C     0.77859   0.89299   0.16638   0.00000  Uiso   1.00
C174   C     0.63605   0.81356   0.30379   0.00000  Uiso   1.00
O175   O     0.93638   0.80639   0.95226   0.00000  Uiso   1.00
O176   O     0.82534   0.71698   0.07993   0.00000  Uiso   1.00
C177   C     0.78129   0.82814  -0.01687   0.00000  Uiso   1.00
O178   O     0.73953   0.59626   0.49013   0.00000  Uiso   1.00
O179   O     0.86980   0.61573   0.37840   0.00000  Uiso   1.00
O180   O     0.92032   0.71483   0.49934   0.00000  Uiso   1.00
O181   O     0.96102   0.81740   0.27483   0.00000  Uiso   1.00
O182   O     0.78480   0.78150   0.27553   0.00000  Uiso   1.00
O183   O     0.84056   0.74391   0.39425   0.00000  Uiso   1.00
O184   O     0.90702   0.90075   0.36191   0.00000  Uiso   1.00
C185   C     0.67848   0.51567   0.86972   0.00000  Uiso   1.00
O186   O     0.76461   0.66715   0.94846   0.00000  Uiso   1.00
C187   C     0.59210   0.63169   0.90287   0.00000  Uiso   1.00
C188   C     0.60723   0.52196   1.03055   0.00000  Uiso   1.00
C189   C     0.54170   0.81546   0.91596   0.00000  Uiso   1.00
O190   O     0.91915   0.83471   0.58975   0.00000  Uiso   1.00
C191   C     0.73821   0.78566   0.53349   0.00000  Uiso   1.00
C192   C     0.76752   0.77576   0.69659   0.00000  Uiso   1.00
C193   C     0.86167   0.96174   0.63266   0.00000  Uiso   1.00
H194   H     0.03414  -0.03986  -0.00185   0.00000  Uiso   1.00
H195   H     0.14779   0.06505   0.01700   0.00000  Uiso   1.00
H196   H     0.05900   0.03114   0.08192   0.00000  Uiso   1.00
H197   H     0.27198   0.08223   0.12484   0.00000  Uiso   1.00
H198   H     0.25108   0.00680   0.19373   0.00000  Uiso   1.00
H199   H     0.17856   0.04998   0.19043   0.00000  Uiso   1.00
H200   H     0.13388   0.06572   0.37716   0.00000  Uiso   1.00
H201   H     0.07390  -0.03330   0.31179   0.00000  Uiso   1.00
H202   H     0.19289   0.03550   0.31355   0.00000  Uiso   1.00
H203   H     0.04681  -0.03016   0.66515   0.00000  Uiso   1.00
H204   H    -0.01438  -0.03782   0.76208   0.00000  Uiso   1.00
H205   H    -0.02843  -0.13537   0.70956   0.00000  Uiso   1.00
H206   H     0.00617   0.61153   0.10832   0.00000  Uiso   1.00
H207   H     0.06596   0.54917   0.10323   0.00000  Uiso   1.00
H208   H     0.09780   0.63084   0.17050   0.00000  Uiso   1.00
H209   H     0.25628   0.40730  -0.08082   0.00000  Uiso   1.00
H210   H     0.12633   0.34646  -0.09544   0.00000  Uiso   1.00
H211   H     0.17148   0.39535  -0.00531   0.00000  Uiso   1.00
H212   H     0.24558   0.63765  -0.04033   0.00000  Uiso   1.00
H213   H     0.26958   0.56507   0.01221   0.00000  Uiso   1.00
H214   H     0.14882   0.54543   0.01338   0.00000  Uiso   1.00
H215   H     0.30697   0.53709   0.78581   0.00000  Uiso   1.00
H216   H     0.37502   0.60204   0.85551   0.00000  Uiso   1.00
H217   H     0.30867   0.63651   0.80320   0.00000  Uiso   1.00
H218   H     0.98994   0.62595   0.55463   0.00000  Uiso   1.00
H219   H     1.02339   0.59176   0.63788   0.00000  Uiso   1.00
H220   H     0.92524   0.51228   0.58440   0.00000  Uiso   1.00
H221   H     0.08488   0.42506   0.38551   0.00000  Uiso   1.00
H222   H     0.19740   0.45982   0.33988   0.00000  Uiso   1.00
H223   H     0.10993   0.34851   0.33412   0.00000  Uiso   1.00
H224   H     0.14952   0.45646   0.11231   0.00000  Uiso   1.00
H225   H     0.04897   0.35637   0.14540   0.00000  Uiso   1.00
H226   H     0.15378   0.38174   0.17976   0.00000  Uiso   1.00
H227   H    -0.03392   0.20173   0.72151   0.00000  Uiso   1.00
H228   H    -0.04159   0.27850   0.78023   0.00000  Uiso   1.00
H229   H     0.03128   0.23333   0.80679   0.00000  Uiso   1.00
H230   H     0.10857   0.35443   0.55652   0.00000  Uiso   1.00
H231   H     0.06245   0.24048   0.58913   0.00000  Uiso   1.00
H232   H     0.18821   0.32506   0.58785   0.00000  Uiso   1.00
H233   H     0.23079   0.31101   0.71183   0.00000  Uiso   1.00
H234   H     0.21755   0.36320   0.79365   0.00000  Uiso   1.00
H235   H     0.28834   0.43058   0.71418   0.00000  Uiso   1.00
H236   H     1.01837   0.57274   0.97280   0.00000  Uiso   1.00
H237   H     0.95945   0.45360   0.97710   0.00000  Uiso   1.00
H238   H     0.89782   0.49906   0.92984   0.00000  Uiso   1.00
H239   H     0.91049   0.48646   0.77288   0.00000  Uiso   1.00
H240   H     0.90303   0.38358   0.81263   0.00000  Uiso   1.00
H241   H     0.98783   0.45156   0.73405   0.00000  Uiso   1.00
H242   H     0.14814   0.75368   0.10694   0.00000  Uiso   1.00
H243   H     0.25356   0.78391   0.05048   0.00000  Uiso   1.00
H244   H     0.15729   0.68784   0.02272   0.00000  Uiso   1.00
H245   H     0.20232   0.59739   0.17926   0.00000  Uiso   1.00
H246   H     0.27504   0.59049   0.24114   0.00000  Uiso   1.00
H247   H     0.19399   0.62690   0.26602   0.00000  Uiso   1.00
H248   H     0.23959   0.59806   0.39238   0.00000  Uiso   1.00
H249   H     0.34062   0.69503   0.43974   0.00000  Uiso   1.00
H250   H     0.33077   0.70134   0.34479   0.00000  Uiso   1.00
H251   H     0.99264   0.70580   0.79111   0.00000  Uiso   1.00
H252   H     0.89697   0.72425   0.80166   0.00000  Uiso   1.00
H253   H     0.91356   0.64292   0.86450   0.00000  Uiso   1.00
H254   H     0.28802   0.05736   0.40264   0.00000  Uiso   1.00
H255   H     0.29371  -0.04211   0.40100   0.00000  Uiso   1.00
H256   H     0.27574  -0.01267   0.48787   0.00000  Uiso   1.00
H257   H     0.37838   0.18143   0.44901   0.00000  Uiso   1.00
H258   H     0.42694   0.12156   0.49253   0.00000  Uiso   1.00
H259   H     0.48623   0.23847   0.50331   0.00000  Uiso   1.00
H260   H     0.29531   0.25133   0.51570   0.00000  Uiso   1.00
H261   H     0.41113   0.32107   0.55258   0.00000  Uiso   1.00
H262   H     0.29223   0.26652   0.61189   0.00000  Uiso   1.00
H263   H     0.19134   0.00397   0.58174   0.00000  Uiso   1.00
H264   H     0.19751   0.07560   0.51095   0.00000  Uiso   1.00
H265   H     0.16781   0.09193   0.60422   0.00000  Uiso   1.00
H266   H     0.27268   0.17607   0.94218   0.00000  Uiso   1.00
H267   H     0.35807   0.16182   0.89009   0.00000  Uiso   1.00
H268   H     0.24365   0.06525   0.92355   0.00000  Uiso   1.00
H269   H     0.14888   0.20700   0.84734   0.00000  Uiso   1.00
H270   H     0.08373   0.09187   0.89286   0.00000  Uiso   1.00
H271   H     0.07055   0.11141   0.79562   0.00000  Uiso   1.00
H272   H     0.49540   0.26563   0.31470   0.00000  Uiso   1.00
H273   H     0.38673   0.18983   0.27086   0.00000  Uiso   1.00
H274   H     0.39402   0.27616   0.32215   0.00000  Uiso   1.00
H275   H     0.52613   0.23546   0.14024   0.00000  Uiso   1.00
H276   H     0.51270   0.30291   0.07202   0.00000  Uiso   1.00
H277   H     0.41222   0.21162   0.11861   0.00000  Uiso   1.00
H278   H     0.29855   0.44614   0.07327   0.00000  Uiso   1.00
H279   H     0.41394   0.50354   0.07891   0.00000  Uiso   1.00
H280   H     0.33209   0.49342   0.15908   0.00000  Uiso   1.00
H281   H     0.24678   0.23796   1.24499   0.00000  Uiso   1.00
H282   H     0.16887   0.24369   1.17612   0.00000  Uiso   1.00
H283   H     0.22756   0.31913   1.24973   0.00000  Uiso   1.00
H284   H     0.28821   0.21193   1.07761   0.00000  Uiso   1.00
H285   H     0.38545   0.30810   1.02313   0.00000  Uiso   1.00
H286   H     0.26609   0.28318   1.01811   0.00000  Uiso   1.00
H287   H     0.25769   0.50451   0.47301   0.00000  Uiso   1.00
H288   H     0.29326   0.42859   0.48601   0.00000  Uiso   1.00
H289   H     0.36852   0.52428   0.43641   0.00000  Uiso   1.00
H290   H     0.46904   0.70118   0.51213   0.00000  Uiso   1.00
H291   H     0.53576   0.66982   0.56633   0.00000  Uiso   1.00
H292   H     0.45702   0.69898   0.61458   0.00000  Uiso   1.00
H293   H     0.44798   0.60204   0.28424   0.00000  Uiso   1.00
H294   H     0.37292   0.47427   0.30685   0.00000  Uiso   1.00
H295   H     0.46845   0.52851   0.22408   0.00000  Uiso   1.00
H296   H     0.46304   0.45144   0.47173   0.00000  Uiso   1.00
H297   H     0.49154   0.39029   0.39768   0.00000  Uiso   1.00
H298   H     0.38685   0.39697   0.39950   0.00000  Uiso   1.00
H299   H     0.65049   0.68474   0.38869   0.00000  Uiso   1.00
H300   H     0.58039   0.61899   0.46703   0.00000  Uiso   1.00
H301   H     0.52984   0.65978   0.40395   0.00000  Uiso   1.00
H302   H     0.50155   0.43941   0.83853   0.00000  Uiso   1.00
H303   H     0.45213   0.33026   0.88251   0.00000  Uiso   1.00
H304   H     0.37191   0.35870   0.87096   0.00000  Uiso   1.00
H305   H     0.56344   0.62747   0.68937   0.00000  Uiso   1.00
H306   H     0.59749   0.56726   0.73718   0.00000  Uiso   1.00
H307   H     0.48226   0.55507   0.76570   0.00000  Uiso   1.00
H308   H     0.37078   0.77957   0.20728   0.00000  Uiso   1.00
H309   H     0.38044   0.85052   0.12961   0.00000  Uiso   1.00
H310   H     0.26833   0.77035   0.17780   0.00000  Uiso   1.00
H311   H     0.50457   0.94156   0.29899   0.00000  Uiso   1.00
H312   H     0.40015   0.85929   0.35014   0.00000  Uiso   1.00
H313   H     0.43705   0.97874   0.35552   0.00000  Uiso   1.00
H314   H     0.43035   1.07395   0.21295   0.00000  Uiso   1.00
H315   H     0.37175   1.01876   0.13753   0.00000  Uiso   1.00
H316   H     0.47807   1.02414   0.14430   0.00000  Uiso   1.00
H317   H     0.45621   0.76351   0.09138   0.00000  Uiso   1.00
H318   H     0.41142   0.68001   0.02274   0.00000  Uiso   1.00
H319   H     0.33296   0.71206   0.06495   0.00000  Uiso   1.00
H320   H     0.47052   0.96495   0.00729   0.00000  Uiso   1.00
H321   H     0.57331   0.97333  -0.03693   0.00000  Uiso   1.00
H322   H     0.53331   0.92837   0.06439   0.00000  Uiso   1.00
H323   H     0.38764   1.00110   0.58682   0.00000  Uiso   1.00
H324   H     0.41529   0.98981   0.48929   0.00000  Uiso   1.00
H325   H     0.47278   0.97240   0.56809   0.00000  Uiso   1.00
H326   H     0.43273   0.82063   0.56478   0.00000  Uiso   1.00
H327   H     0.31998   0.71860   0.56038   0.00000  Uiso   1.00
H328   H     0.34533   0.78178   0.64700   0.00000  Uiso   1.00
H329   H     0.62127   1.00360   0.59892   0.00000  Uiso   1.00
H330   H     0.66023   0.92790   0.62092   0.00000  Uiso   1.00
H331   H     0.73452   1.04472   0.64295   0.00000  Uiso   1.00
H332   H     0.46202   0.82717   0.79160   0.00000  Uiso   1.00
H333   H     0.54747   0.81440   0.75537   0.00000  Uiso   1.00
H334   H     0.47922   0.82313   0.69033   0.00000  Uiso   1.00
H335   H     0.72919   0.98557   0.79311   0.00000  Uiso   1.00
H336   H     0.65950   1.02640   0.85222   0.00000  Uiso   1.00
H337   H     0.74882   1.09119   0.78319   0.00000  Uiso   1.00
H338   H     0.68889   0.02039   0.26142   0.00000  Uiso   1.00
H339   H     0.73206   0.13170   0.22563   0.00000  Uiso   1.00
H340   H     0.61895   0.05828   0.23039   0.00000  Uiso   1.00
H341   H     0.69140   0.02489   0.45009   0.00000  Uiso   1.00
H342   H     0.59718  -0.04119   0.39684   0.00000  Uiso   1.00
H343   H     0.58304   0.01998   0.47234   0.00000  Uiso   1.00
H344   H     0.88093   0.30333   0.93622   0.00000  Uiso   1.00
H345   H     0.82239   0.20287   0.88276   0.00000  Uiso   1.00
H346   H     0.90933   0.22031   0.95335   0.00000  Uiso   1.00
H347   H     0.81075   0.11201   0.10346   0.00000  Uiso   1.00
H348   H     0.76107   0.04896   0.02359   0.00000  Uiso   1.00
H349   H     0.68603   0.04893   0.09781   0.00000  Uiso   1.00
H350   H     1.06114   0.11195   0.43222   0.00000  Uiso   1.00
H351   H     0.99981   0.00881   0.48329   0.00000  Uiso   1.00
H352   H     0.95431   0.08186   0.48992   0.00000  Uiso   1.00
H353   H     0.82472   1.06623   0.37390   0.00000  Uiso   1.00
H354   H     0.76677   0.96107   0.42448   0.00000  Uiso   1.00
H355   H     0.77339   0.97399   0.32000   0.00000  Uiso   1.00
H356   H     0.76953   0.16170   0.53321   0.00000  Uiso   1.00
H357   H     0.66539   0.17345   0.52677   0.00000  Uiso   1.00
H358   H     0.70337   0.15434   0.61960   0.00000  Uiso   1.00
H359   H     0.89932   0.23816   0.60309   0.00000  Uiso   1.00
H360   H     0.93103   0.33644   0.66607   0.00000  Uiso   1.00
H361   H     0.97770   0.35763   0.56991   0.00000  Uiso   1.00
H362   H     0.72314   0.36346   0.63811   0.00000  Uiso   1.00
H363   H     0.84113   0.41594   0.67489   0.00000  Uiso   1.00
H364   H     0.75286   0.31513   0.71064   0.00000  Uiso   1.00
H365   H     0.61448   0.20831   0.68518   0.00000  Uiso   1.00
H366   H     0.57617   0.23110   0.59858   0.00000  Uiso   1.00
H367   H     0.53155   0.11141   0.63283   0.00000  Uiso   1.00
H368   H     0.88690   0.26335   0.22359   0.00000  Uiso   1.00
H369   H     0.87533   0.16149   0.26290   0.00000  Uiso   1.00
H370   H     0.98390   0.25759   0.26427   0.00000  Uiso   1.00
H371   H     0.96344   0.01061   0.23194   0.00000  Uiso   1.00
H372   H     1.05848   0.10315   0.27753   0.00000  Uiso   1.00
H373   H     0.96816   0.11717   0.25621   0.00000  Uiso   1.00
H374   H     1.00231   0.29329   0.46000   0.00000  Uiso   1.00
H375   H     0.99273   0.21105   0.40052   0.00000  Uiso   1.00
H376   H     0.89415   0.18300   0.46659   0.00000  Uiso   1.00
H377   H     0.61057   0.25588   0.81521   0.00000  Uiso   1.00
H378   H     0.71837   0.26681   0.84186   0.00000  Uiso   1.00
H379   H     0.66983   0.31661   0.89942   0.00000  Uiso   1.00
H380   H     0.49029   0.15383   1.04132   0.00000  Uiso   1.00
H381   H     0.41187   0.10312   0.97102   0.00000  Uiso   1.00
H382   H     0.49024   0.22259   0.96523   0.00000  Uiso   1.00
H383   H     0.54307   0.12684   0.42263   0.00000  Uiso   1.00
H384   H     0.54562   0.13642   0.32180   0.00000  Uiso   1.00
H385   H     0.63249   0.22936   0.38170   0.00000  Uiso   1.00
H386   H     0.63928   0.20352   0.20828   0.00000  Uiso   1.00
H387   H     0.65859   0.31646   0.23890   0.00000  Uiso   1.00
H388   H     0.73502   0.27935   0.27011   0.00000  Uiso   1.00
H389   H     0.64747   0.30632   0.06684   0.00000  Uiso   1.00
H390   H     0.75573   0.39067   0.01975   0.00000  Uiso   1.00
H391   H     0.69818   0.40905   0.10550   0.00000  Uiso   1.00
H392   H     0.60455   0.39092   0.46835   0.00000  Uiso   1.00
H393   H     0.57542   0.35432   0.56391   0.00000  Uiso   1.00
H394   H     0.69066   0.38969   0.51751   0.00000  Uiso   1.00
H395   H     0.79586   0.52070   0.63292   0.00000  Uiso   1.00
H396   H     0.68985   0.48771   0.69268   0.00000  Uiso   1.00
H397   H     0.77271   0.60089   0.66237   0.00000  Uiso   1.00
H398   H     0.78843   0.54520   0.02596   0.00000  Uiso   1.00
H399   H     0.85640   0.52572   0.08259   0.00000  Uiso   1.00
H400   H     0.90501   0.62607   0.02191   0.00000  Uiso   1.00
H401   H     0.58283   0.70784   0.14770   0.00000  Uiso   1.00
H402   H     0.61049   0.63962   0.21073   0.00000  Uiso   1.00
H403   H     0.67476   0.69416   0.12767   0.00000  Uiso   1.00
H404   H     0.81097   0.96035   0.19415   0.00000  Uiso   1.00
H405   H     0.72951   0.89506   0.12578   0.00000  Uiso   1.00
H406   H     0.82996   0.88410   0.13841   0.00000  Uiso   1.00
H407   H     0.65634   0.81798   0.36149   0.00000  Uiso   1.00
H408   H     0.55999   0.75573   0.29737   0.00000  Uiso   1.00
H409   H     0.62976   0.87132   0.29027   0.00000  Uiso   1.00
H410   H     0.83943   0.89287  -0.00020   0.00000  Uiso   1.00
H411   H     0.71109   0.80437   0.01687   0.00000  Uiso   1.00
H412   H     0.77439   0.83765  -0.07755   0.00000  Uiso   1.00
H413   H     0.62136   0.44602   0.86781   0.00000  Uiso   1.00
H414   H     0.73591   0.50777   0.88386   0.00000  Uiso   1.00
H415   H     0.68991   0.55288   0.81082   0.00000  Uiso   1.00
H416   H     0.61774   0.66884   0.84609   0.00000  Uiso   1.00
H417   H     0.59599   0.67771   0.94679   0.00000  Uiso   1.00
H418   H     0.51875   0.57708   0.89501   0.00000  Uiso   1.00
H419   H     0.61807   0.56595   1.07463   0.00000  Uiso   1.00
H420   H     0.63948   0.48120   1.04334   0.00000  Uiso   1.00
H421   H     0.53248   0.47066   1.01892   0.00000  Uiso   1.00
H422   H     0.58860   0.86039   0.86821   0.00000  Uiso   1.00
H423   H     0.51009   0.74341   0.91172   0.00000  Uiso   1.00
H424   H     0.59910   0.83522   0.95617   0.00000  Uiso   1.00
H425   H     0.71017   0.71220   0.52982   0.00000  Uiso   1.00
H426   H     0.77338   0.82522   0.47800   0.00000  Uiso   1.00
H427   H     0.67946   0.79395   0.55174   0.00000  Uiso   1.00
H428   H     0.71397   0.78991   0.70381   0.00000  Uiso   1.00
H429   H     0.81382   0.80447   0.74313   0.00000  Uiso   1.00
H430   H     0.73245   0.70577   0.69290   0.00000  Uiso   1.00
H431   H     0.93791   1.00017   0.63266   0.00000  Uiso   1.00
H432   H     0.83513   0.95786   0.68913   0.00000  Uiso   1.00
H433   H     0.82557   0.98582   0.59387   0.00000  Uiso   1.00
loop_
_geom_bond_atom_site_label_1
_geom_bond_atom_site_label_2
_geom_bond_distance
_geom_bond_site_symmetry_2
_ccdc_geom_bond_type
Si1    C52     1.874   .     S
Si1    C53     1.878   .     S
Si1    O72     1.658   1_545 S
Si1    O74     1.581   1_545 S
Si2    C54     1.832   .     S
Si2    C90     1.799   .     S
Si2    O78     1.622   1_545 S
Si2    O81     1.587   1_545 S
Si3    C55     1.868   .     S
Si3    O94     1.589   .     S
Si3    O85     1.589   1_545 S
Si3    O89     1.644   1_545 S
Si4    C56     1.818   .     S
Si4    O61     1.588   .     S
Si4    O157    1.612   1_455 S
Si4    O166    1.615   1_455 S
Si5    C57     1.848   .     S
Si5    C58     1.782   .     S
Si5    C59     1.897   1_554 S
Si5    O67     1.587   1_554 S
Si6    O70     1.639   .     S
Si6    O75     1.582   .     S
Si6    C60     1.731   1_455 S
Si6    O162    1.608   1_455 S
Si7    O61     1.600   .     S
Si7    C62     1.876   .     S
Si7    C63     1.790   .     S
Si7    C76     1.890   .     S
Si8    C64     1.944   .     S
Si8    C65     1.888   .     S
Si8    C66     1.864   .     S
Si8    O71     1.615   .     S
Si9    O67     1.573   .     S
Si9    O82     1.609   .     S
Si9    C68     1.808   1_455 S
Si9    C69     1.825   1_455 S
Si10   O70     1.629   .     S
Si10   O71     1.617   .     S
Si10   O83     1.639   .     S
Si10   O107    1.641   .     S
Si11   O72     1.596   .     S
Si11   O79     1.639   .     S
Si11   O171    1.530   1_455 S
Si11   O181    1.560   1_455 S
Si12   C73     1.849   .     S
Si12   O74     1.645   .     S
Si12   O84     1.570   1_554 S
Si12   O129    1.616   1_554 S
Si13   O75     1.559   .     S
Si13   C77     1.849   .     S
Si13   O80     1.633   .     S
Si13   O123    1.593   .     S
Si14   O78     1.628   .     S
Si14   O87     1.662   .     S
Si14   O180    1.676   1_455 S
Si14   O190    1.625   1_455 S
Si15   O79     1.554   .     S
Si15   O80     1.565   .     S
Si15   O81     1.608   .     S
Si15   O120    1.579   .     S
Si16   O82     1.596   .     S
Si16   O83     1.622   .     S
Si16   O88     1.620   .     S
Si16   O126    1.715   .     S
Si17   O84     1.549   .     S
Si17   O85     1.606   .     S
Si17   C86     1.847   1_455 S
Si17   O175    1.628   1_455 S
Si18   O87     1.617   .     S
Si18   O88     1.688   .     S
Si18   O89     1.622   .     S
Si18   O125    1.619   .     S
Si19   C91     1.835   .     S
Si19   C92     1.840   .     S
Si19   C93     1.854   .     S
Si19   O97     1.582   .     S
Si20   O98     1.585   .     S
Si20   O149    1.579   .     S
Si20   O128    1.574   1_545 S
Si20   O133    1.599   1_545 S
Si21   O94     1.639   .     S
Si21   C95     1.864   .     S
Si21   C96     1.818   .     S
Si21   O111    1.583   .     S
Si22   O97     1.560   .     S
Si22   O98     1.602   .     S
Si22   O112    1.602   .     S
Si22   C144    1.840   .     S
Si23   C99     1.837   .     S
Si23   C100    1.825   .     S
Si23   O101    1.559   .     S
Si23   O158    1.609   .     S
Si24   O101    1.581   .     S
Si24   C102    1.850   .     S
Si24   C103    1.869   1_554 S
Si24   C104    1.905   1_554 S
Si25   C105    1.873   .     S
Si25   C106    1.829   .     S
Si25   O107    1.625   .     S
Si25   O114    1.610   .     S
Si26   C108    1.907   .     S
Si26   C109    1.862   .     S
Si26   C110    1.832   .     S
Si26   O159    1.616   .     S
Si27   O111    1.598   .     S
Si27   O112    1.597   .     S
Si27   C113    1.833   .     S
Si27   O115    1.676   .     S
Si28   O114    1.627   .     S
Si28   O115    1.645   .     S
Si28   C116    1.828   .     S
Si28   O165    1.646   .     S
Si29   C117    1.870   .     S
Si29   C118    1.903   .     S
Si29   C119    1.865   .     S
Si29   O120    1.673   .     S
Si30   C121    1.876   .     S
Si30   C122    1.874   .     S
Si30   O127    1.612   1_554 S
Si30   C189    1.834   1_554 S
Si31   O123    1.576   .     S
Si31   C124    1.886   .     S
Si31   O125    1.587   .     S
Si31   C130    1.865   .     S
Si32   O126    1.618   .     S
Si32   O127    1.597   .     S
Si32   O128    1.628   .     S
Si32   O129    1.630   .     S
Si33   C131    1.884   .     S
Si33   C132    1.820   .     S
Si33   O133    1.604   .     S
Si33   C134    1.909   .     S
Si34   C135    1.871   .     S
Si34   C136    1.883   .     S
Si34   O146    1.583   .     S
Si34   C153    1.809   .     S
Si35   C138    1.886   .     S
Si35   O155    1.596   .     S
Si35   C137    1.954   1_554 S
Si35   O150    1.611   1_554 S
Si36   C139    1.874   .     S
Si36   C147    1.884   .     S
Si36   C140    1.885   1_545 S
Si36   O184    1.585   1_545 S
Si37   C141    1.905   .     S
Si37   C142    1.844   .     S
Si37   C143    1.842   .     S
Si37   O160    1.577   .     S
Si38   C145    1.842   .     S
Si38   O146    1.570   .     S
Si38   C148    1.890   .     S
Si38   O161    1.627   .     S
Si39   O149    1.608   .     S
Si39   O150    1.648   .     S
Si39   C151    1.891   .     S
Si39   C152    1.911   .     S
Si40   C154    1.849   .     S
Si40   O155    1.620   .     S
Si40   C156    1.812   .     S
Si40   O157    1.631   .     S
Si41   O158    1.584   .     S
Si41   O159    1.575   .     S
Si41   O167    1.618   .     S
Si41   O169    1.611   .     S
Si42   O160    1.568   .     S
Si42   O161    1.601   .     S
Si42   O162    1.617   .     S
Si42   O168    1.570   .     S
Si43   C163    1.879   .     S
Si43   C164    1.886   .     S
Si43   O165    1.609   .     S
Si43   O178    1.676   .     S
Si44   O166    1.604   .     S
Si44   O167    1.596   .     S
Si44   O168    1.600   .     S
Si44   O179    1.623   .     S
Si45   O169    1.670   .     S
Si45   C170    1.884   .     S
Si45   O171    1.605   .     S
Si45   O176    1.601   .     S
Si46   C172    1.842   .     S
Si46   C173    1.835   .     S
Si46   C174    1.853   .     S
Si46   O182    1.615   .     S
Si47   O176    1.627   .     S
Si47   C177    1.917   .     S
Si47   O175    1.665   1_554 S
Si47   O186    1.543   1_554 S
Si48   O178    1.665   .     S
Si48   O179    1.616   .     S
Si48   O180    1.589   .     S
Si48   O183    1.623   .     S
Si49   O181    1.608   .     S
Si49   O182    1.581   .     S
Si49   O183    1.571   .     S
Si49   O184    1.572   .     S
Si50   C185    1.829   .     S
Si50   O186    1.565   .     S
Si50   C187    1.876   .     S
Si50   C188    1.904   .     S
Si51   O190    1.617   .     S
Si51   C191    1.899   .     S
Si51   C192    1.840   .     S
Si51   C193    1.954   .     S
C52    H194    1.099   .     S
C52    H195    1.122   .     S
C52    H196    1.097   .     S
C53    H197    1.032   .     S
C53    H198    1.103   .     S
C53    H199    1.087   .     S
C54    H200    1.135   .     S
C54    H201    1.092   .     S
C54    H202    1.143   .     S
C55    H203    1.141   .     S
C55    H204    1.128   .     S
C55    H205    1.106   .     S
C56    H206    1.116   .     S
C56    H207    1.112   .     S
C56    H208    1.108   .     S
C57    H209    1.146   .     S
C57    H210    1.119   .     S
C57    H211    1.125   .     S
C58    H212    1.097   .     S
C58    H213    1.117   .     S
C58    H214    1.073   .     S
C59    H215    1.062   .     S
C59    H216    1.134   .     S
C59    H217    1.098   .     S
C59    Si5     1.897   1_556 S
C60    H218    1.068   .     S
C60    H219    1.118   .     S
C60    H220    1.079   .     S
C60    Si6     1.731   1_655 S
C62    H221    1.086   .     S
C62    H222    1.085   .     S
C62    H223    1.138   .     S
C63    H224    1.124   .     S
C63    H225    1.095   .     S
C63    H226    1.042   .     S
C64    H227    1.090   .     S
C64    H228    1.111   .     S
C64    H229    1.143   .     S
C65    H230    1.159   .     S
C65    H231    1.104   .     S
C65    H232    1.095   .     S
C66    H233    1.159   .     S
C66    H234    1.065   .     S
C66    H235    1.078   .     S
O67    Si5     1.587   1_556 S
C68    H236    1.142   .     S
C68    H237    1.115   .     S
C68    H238    1.129   .     S
C68    Si9     1.808   1_655 S
C69    H239    1.140   .     S
C69    H240    1.132   .     S
C69    H241    1.091   .     S
C69    Si9     1.825   1_655 S
O72    Si1     1.658   1_565 S
C73    H242    1.141   .     S
C73    H243    1.052   .     S
C73    H244    1.123   .     S
O74    Si1     1.581   1_565 S
C76    H245    1.067   .     S
C76    H246    1.080   .     S
C76    H247    1.086   .     S
C77    H248    1.161   .     S
C77    H249    1.097   .     S
C77    H250    1.128   .     S
O78    Si2     1.622   1_565 S
O81    Si2     1.587   1_565 S
O84    Si12    1.570   1_556 S
O85    Si3     1.589   1_565 S
C86    H251    1.079   .     S
C86    H252    1.142   .     S
C86    H253    1.116   .     S
C86    Si17    1.847   1_655 S
O89    Si3     1.644   1_565 S
C90    H254    1.122   .     S
C90    H255    1.061   .     S
C90    H256    1.124   .     S
C91    H257    1.144   .     S
C91    H258    1.060   .     S
C91    H259    1.104   .     S
C92    H260    1.117   .     S
C92    H261    1.149   .     S
C92    H262    1.111   .     S
C93    H263    1.056   .     S
C93    H264    1.088   .     S
C93    H265    1.128   .     S
C95    H266    1.111   .     S
C95    H267    1.131   .     S
C95    H268    1.090   .     S
C96    H269    1.084   .     S
C96    H270    1.150   .     S
C96    H271    1.066   .     S
C99    H272    1.101   .     S
C99    H273    1.107   .     S
C99    H274    1.092   .     S
C100   H275    1.087   .     S
C100   H276    1.124   .     S
C100   H277    1.110   .     S
C102   H278    1.072   .     S
C102   H279    1.125   .     S
C102   H280    1.107   .     S
C103   H281    1.071   .     S
C103   H282    1.111   .     S
C103   H283    1.038   .     S
C103   Si24    1.869   1_556 S
C104   H284    1.104   .     S
C104   H285    1.110   .     S
C104   H286    1.116   .     S
C104   Si24    1.905   1_556 S
C105   H287    1.088   .     S
C105   H288    1.058   .     S
C105   H289    1.111   .     S
C106   H290    1.149   .     S
C106   H291    1.087   .     S
C106   H292    1.126   .     S
C108   H293    1.179   .     S
C108   H294    1.143   .     S
C108   H295    1.137   .     S
C109   H296    1.101   .     S
C109   H297    1.129   .     S
C109   H298    1.056   .     S
C110   H299    1.141   .     S
C110   H300    1.059   .     S
C110   H301    1.139   .     S
C113   H302    1.118   .     S
C113   H303    1.059   .     S
C113   H304    1.148   .     S
C116   H305    1.112   .     S
C116   H306    1.070   .     S
C116   H307    1.112   .     S
C117   H308    1.096   .     S
C117   H309    1.043   .     S
C117   H310    1.102   .     S
C118   H311    1.114   .     S
C118   H312    1.105   .     S
C118   H313    1.112   .     S
C119   H314    1.114   .     S
C119   H315    1.114   .     S
C119   H316    1.076   .     S
C121   H317    1.131   .     S
C121   H318    1.146   .     S
C121   H319    1.115   .     S
C122   H320    1.075   .     S
C122   H321    1.089   .     S
C122   H322    1.126   .     S
C124   H323    1.096   .     S
C124   H324    1.049   .     S
C124   H325    1.118   .     S
O127   Si30    1.612   1_556 S
O128   Si20    1.574   1_565 S
O129   Si12    1.616   1_556 S
C130   H326    1.126   .     S
C130   H327    1.102   .     S
C130   H328    1.095   .     S
C131   H329    1.089   .     S
C131   H330    1.130   .     S
C131   H331    1.079   .     S
C132   H332    1.060   .     S
C132   H333    1.106   .     S
C132   H334    1.083   .     S
O133   Si20    1.599   1_565 S
C134   H335    1.105   .     S
C134   H336    1.153   .     S
C134   H337    1.073   .     S
C135   H338    1.129   .     S
C135   H339    1.065   .     S
C135   H340    1.046   .     S
C136   H341    1.088   .     S
C136   H342    1.066   .     S
C136   H343    1.106   .     S
C137   H344    1.078   .     S
C137   H345    1.127   .     S
C137   H346    1.126   .     S
C137   Si35    1.954   1_556 S
C138   H347    1.109   .     S
C138   H348    1.109   .     S
C138   H349    1.095   .     S
C139   H350    1.106   .     S
C139   H351    1.108   .     S
C139   H352    1.112   .     S
C140   H353    1.078   .     S
C140   H354    1.087   .     S
C140   H355    1.171   .     S
C140   Si36    1.885   1_565 S
C141   H356    1.112   .     S
C141   H357    1.129   .     S
C141   H358    1.142   .     S
C142   H359    1.114   .     S
C142   H360    1.113   .     S
C142   H361    1.137   .     S
C143   H362    1.133   .     S
C143   H363    1.085   .     S
C143   H364    1.060   .     S
C144   H365    1.104   .     S
C144   H366    1.123   .     S
C144   H367    1.129   .     S
C145   H368    1.121   .     S
C145   H369    1.081   .     S
C145   H370    1.114   .     S
C147   H371    1.118   .     S
C147   H372    1.074   .     S
C147   H373    1.182   .     S
C148   H374    1.114   .     S
C148   H375    1.107   .     S
C148   H376    1.091   .     S
O150   Si35    1.611   1_556 S
C151   H377    1.099   .     S
C151   H378    1.111   .     S
C151   H379    1.124   .     S
C152   H380    1.057   .     S
C152   H381    1.145   .     S
C152   H382    1.067   .     S
C153   H383    1.117   .     S
C153   H384    1.140   .     S
C153   H385    1.104   .     S
C154   H386    1.125   .     S
C154   H387    1.184   .     S
C154   H388    1.126   .     S
C156   H389    1.052   .     S
C156   H390    1.095   .     S
C156   H391    1.109   .     S
O157   Si4     1.612   1_655 S
O162   Si6     1.608   1_655 S
C163   H392    1.072   .     S
C163   H393    1.103   .     S
C163   H394    1.111   .     S
C164   H395    1.080   .     S
C164   H396    1.134   .     S
C164   H397    1.103   .     S
O166   Si4     1.615   1_655 S
C170   H398    1.067   .     S
C170   H399    1.041   .     S
C170   H400    1.102   .     S
O171   Si11    1.530   1_655 S
C172   H401    1.113   .     S
C172   H402    1.101   .     S
C172   H403    1.092   .     S
C173   H404    1.144   .     S
C173   H405    1.133   .     S
C173   H406    1.058   .     S
C174   H407    1.080   .     S
C174   H408    1.146   .     S
C174   H409    1.111   .     S
O175   Si17    1.628   1_655 S
O175   Si47    1.665   1_556 S
C177   H410    1.093   .     S
C177   H411    1.148   .     S
C177   H412    1.105   .     S
O180   Si14    1.676   1_655 S
O181   Si11    1.560   1_655 S
O184   Si36    1.585   1_565 S
C185   H413    1.089   .     S
C185   H414    1.086   .     S
C185   H415    1.178   .     S
O186   Si47    1.543   1_556 S
C187   H416    1.127   .     S
C187   H417    1.110   .     S
C187   H418    1.104   .     S
C188   H419    1.059   .     S
C188   H420    1.138   .     S
C188   H421    1.119   .     S
C189   H422    1.105   .     S
C189   H423    1.098   .     S
C189   H424    1.125   .     S
C189   Si30    1.834   1_556 S
O190   Si14    1.625   1_655 S
C191   H425    1.130   .     S
C191   H426    1.136   .     S
C191   H427    1.106   .     S
C192   H428    1.058   .     S
C192   H429    1.089   .     S
C192   H430    1.058   .     S
C193   H431    1.082   .     S
C193   H432    1.059   .     S
C193   H433    1.154   .     S
