data_333-13-11-12-15-30-10
_audit_creation_date              2025-03-07
_audit_creation_method            'Materials Studio'
_symmetry_space_group_name_H-M    'P1'
_symmetry_Int_Tables_number       1
_symmetry_cell_setting            triclinic
loop_
_symmetry_equiv_pos_as_xyz
  x,y,z
_cell_length_a                    16.3756
_cell_length_b                    17.0999
_cell_length_c                    17.9056
_cell_angle_alpha                 92.3673
_cell_angle_beta                  86.2445
_cell_angle_gamma                 120.6463
loop_
_atom_site_label
_atom_site_type_symbol
_atom_site_fract_x
_atom_site_fract_y
_atom_site_fract_z
_atom_site_U_iso_or_equiv
_atom_site_adp_type
_atom_site_occupancy
Si1    Si    0.21727   0.17893  -0.10376   0.00000  Uiso   1.00
Si2    Si    0.22490   0.17614   0.35994   0.00000  Uiso   1.00
Si3    Si   -0.02296   0.18658   0.23017   0.00000  Uiso   1.00
Si4    Si   -0.04031   0.54932   0.35629   0.00000  Uiso   1.00
Si5    Si    0.02450   0.52004   0.56444   0.00000  Uiso   1.00
Si6    Si    0.14307   0.54871   0.35313   0.00000  Uiso   1.00
Si7    Si    0.14922   0.35642   0.76132   0.00000  Uiso   1.00
Si8    Si   -0.02052   0.51594   0.85764   0.00000  Uiso   1.00
Si9    Si    0.17078   0.52020   0.67957   0.00000  Uiso   1.00
Si10   Si    0.17573   0.76837   0.10491   0.00000  Uiso   1.00
Si11   Si    0.24447   0.90696  -0.02047   0.00000  Uiso   1.00
Si12   Si    0.18928   0.68508   0.47126   0.00000  Uiso   1.00
Si13   Si    0.21356   0.84459   0.36041   0.00000  Uiso   1.00
Si14   Si    0.17221   0.66555   0.78104   0.00000  Uiso   1.00
Si15   Si    0.09420   0.86625   0.87828   0.00000  Uiso   1.00
Si16   Si    0.46922  -0.00745   0.10008   0.00000  Uiso   1.00
Si17   Si    0.33370   0.12407   0.24885   0.00000  Uiso   1.00
Si18   Si    0.51153   0.14431  -0.01239   0.00000  Uiso   1.00
Si19   Si    0.49105  -0.05333   0.40365   0.00000  Uiso   1.00
Si20   Si    0.47059   0.10737   0.34989   0.00000  Uiso   1.00
Si21   Si    0.52248  -0.02803   0.75652   0.00000  Uiso   1.00
Si22   Si    0.40547   0.18819   0.87146   0.00000  Uiso   1.00
Si23   Si    0.48399   0.24479   0.11770   0.00000  Uiso   1.00
Si24   Si    0.17059   0.30761   0.16097   0.00000  Uiso   1.00
Si25   Si    0.51211   0.22044   0.50092   0.00000  Uiso   1.00
Si26   Si    0.33226   0.49327   0.58476   0.00000  Uiso   1.00
Si27   Si    0.50768   0.39303   0.81206   0.00000  Uiso   1.00
Si28   Si    0.48054   0.47050   0.66914   0.00000  Uiso   1.00
Si29   Si    0.39209   0.64543   0.03013   0.00000  Uiso   1.00
Si30   Si    0.32900   0.85875   0.21557   0.00000  Uiso   1.00
Si31   Si    0.48299   0.84535  -0.01202   0.00000  Uiso   1.00
Si32   Si    0.37246   0.82960   0.53937   0.00000  Uiso   1.00
Si33   Si    0.47838   0.82070   0.26638   0.00000  Uiso   1.00
Si34   Si    0.51707   0.66805   0.71754   0.00000  Uiso   1.00
Si35   Si    0.34822   0.83950   0.86604   0.00000  Uiso   1.00
Si36   Si    0.52999   0.83581   0.64028   0.00000  Uiso   1.00
Si37   Si    0.61233   0.12681   0.21958   0.00000  Uiso   1.00
Si38   Si    0.80311   0.19217  -0.02433   0.00000  Uiso   1.00
Si39   Si    0.81561  -0.02124   0.79040   0.00000  Uiso   1.00
Si40   Si    0.66716   0.16138   0.85710   0.00000  Uiso   1.00
Si41   Si    0.57189   0.39234   0.23527   0.00000  Uiso   1.00
Si42   Si    0.86087   0.53555  -0.01258   0.00000  Uiso   1.00
Si43   Si    0.94963   0.33345   0.48998   0.00000  Uiso   1.00
Si44   Si    0.62480   0.42917   0.56124   0.00000  Uiso   1.00
Si45   Si    0.93313   0.69107   0.43596   0.00000  Uiso   1.00
Si46   Si    0.81346   0.34317   0.76687   0.00000  Uiso   1.00
Si47   Si    0.81258   0.46584   0.64553   0.00000  Uiso   1.00
Si48   Si    0.79737   0.66086   0.06448   0.00000  Uiso   1.00
Si49   Si    0.69269   0.87151   0.52601   0.00000  Uiso   1.00
Si50   Si    0.82687   0.63449   0.72051   0.00000  Uiso   1.00
Si51   Si    0.68429   0.89546   0.92951   0.00000  Uiso   1.00
C52    C     0.11946   0.10744  -0.03545   0.00000  Uiso   1.00
C53    C     0.17568   0.15299   0.80021   0.00000  Uiso   1.00
C54    C     0.10912   0.07046   0.35763   0.00000  Uiso   1.00
C55    C     0.28731   0.19515   0.44681   0.00000  Uiso   1.00
C56    C     0.21270   0.27543   0.36151   0.00000  Uiso   1.00
C57    C    -0.06940   0.12464   0.32180   0.00000  Uiso   1.00
C58    C     0.27093   0.29867  -0.06994   0.00000  Uiso   1.00
C59    C    -0.06156   0.09240   0.16353   0.00000  Uiso   1.00
C60    C    -0.07422   0.26049   0.21501   0.00000  Uiso   1.00
C61    C     0.84491   0.46099   0.40074   0.00000  Uiso   1.00
O62    O     0.03633   0.51979   0.36615   0.00000  Uiso   1.00
C63    C     0.16769   0.45300   0.35279   0.00000  Uiso   1.00
C64    C     0.08274   0.30031   0.85091   0.00000  Uiso   1.00
C65    C     0.13512   0.28037   0.68349   0.00000  Uiso   1.00
C66    C     0.27253   0.41433   0.78545   0.00000  Uiso   1.00
C67    C     0.03974   0.46693   0.90401   0.00000  Uiso   1.00
O68    O     0.09336   0.52489   0.62647   0.00000  Uiso   1.00
O69    O     0.12170   0.42598   0.72704   0.00000  Uiso   1.00
C70    C    -0.05150   0.54484   0.25045   0.00000  Uiso   1.00
C71    C     0.07052   0.78071   0.11498   0.00000  Uiso   1.00
C72    C     0.14034   0.65786   0.05868   0.00000  Uiso   1.00
O73    O     0.23800   0.84339   0.04433   0.00000  Uiso   1.00
C74    C     0.27270   1.01113   0.02991   0.00000  Uiso   1.00
O75    O     0.09121   0.61671   0.52113   0.00000  Uiso   1.00
O76    O     0.19947   0.61876   0.41590   0.00000  Uiso   1.00
C77    C     0.11181   0.82037   0.30249   0.00000  Uiso   1.00
O78    O     0.18342   0.75625   0.41584   0.00000  Uiso   1.00
C79    C     0.24203   0.94708   0.41793   0.00000  Uiso   1.00
O80    O     0.06115   0.59904   0.80792   0.00000  Uiso   1.00
O81    O     0.20705   0.60168   0.73981   0.00000  Uiso   1.00
C82    C     0.15875   0.72714   0.70617   0.00000  Uiso   1.00
O83    O     0.14478   0.87513   0.95526   0.00000  Uiso   1.00
C84    C     0.18665   0.93571   0.80067   0.00000  Uiso   1.00
C85    C     1.00204   0.89553   0.89644   0.00000  Uiso   1.00
C86    C     0.22126   0.02259   0.21855   0.00000  Uiso   1.00
O87    O     0.29343   0.17913   0.29503   0.00000  Uiso   1.00
O88    O     0.46331   0.04358   0.02708   0.00000  Uiso   1.00
C89    C     0.60949   0.02216   0.44569   0.00000  Uiso   1.00
O90    O     0.37754   0.08444   0.30745   0.00000  Uiso   1.00
O91    O     0.45226   0.01174   0.38435   0.00000  Uiso   1.00
C92    C     0.51315   0.02831   0.67746   0.00000  Uiso   1.00
C93    C     0.41188   0.13441   0.78065   0.00000  Uiso   1.00
O94    O     0.44570   0.16024   0.93488   0.00000  Uiso   1.00
O95    O     0.30038   0.15420   0.89609   0.00000  Uiso   1.00
O96    O     0.40582   0.17267   0.17687   0.00000  Uiso   1.00
O97    O     0.53658   0.21170   0.05740   0.00000  Uiso   1.00
C98    C     0.42720   0.29283   0.06585   0.00000  Uiso   1.00
O99    O     0.08635   0.25146   0.22227   0.00000  Uiso   1.00
C100   C     0.20831   0.22335   0.13144   0.00000  Uiso   1.00
C101   C     0.27237   0.41722   0.19694   0.00000  Uiso   1.00
C102   C     0.18701   0.60406   0.26256   0.00000  Uiso   1.00
C103   C     0.59283   0.18422   0.53399   0.00000  Uiso   1.00
O104   O     0.49459   0.18440   0.41298   0.00000  Uiso   1.00
C105   C     0.40405   0.15783   0.56407   0.00000  Uiso   1.00
C106   C     0.25984   0.40436   0.51604   0.00000  Uiso   1.00
C107   C     0.42067   0.58636   0.51389   0.00000  Uiso   1.00
O108   O     0.26313   0.52290   0.63360   0.00000  Uiso   1.00
O109   O     0.44897   0.29499   0.85308   0.00000  Uiso   1.00
C110   C     0.61979   0.40177   0.77395   0.00000  Uiso   1.00
C111   C     0.53153   0.48152   0.88591   0.00000  Uiso   1.00
O112   O     0.38313   0.45104   0.62838   0.00000  Uiso   1.00
O113   O     0.45494   0.41268   0.74681   0.00000  Uiso   1.00
C114   C     0.12995   0.34014   0.08135   0.00000  Uiso   1.00
C115   C     0.32571   0.63137   0.11620   0.00000  Uiso   1.00
C116   C     0.30511   0.59311  -0.04625   0.00000  Uiso   1.00
C117   C     0.44948   0.57872   0.03816   0.00000  Uiso   1.00
O118   O     0.23464   0.78540   0.17820   0.00000  Uiso   1.00
O119   O     0.38089   0.94400   0.16222   0.00000  Uiso   1.00
O120   O     0.30105   0.87186   0.30155   0.00000  Uiso   1.00
O121   O     0.46686   0.75007   0.01610   0.00000  Uiso   1.00
O122   O     0.47880   0.90897   0.06184   0.00000  Uiso   1.00
O123   O     0.27583   0.73579   0.52503   0.00000  Uiso   1.00
O124   O     0.42650   0.86945   0.46371   0.00000  Uiso   1.00
C125   C     0.33862   0.91076   0.58013   0.00000  Uiso   1.00
O126   O     0.39436   0.81504   0.22124   0.00000  Uiso   1.00
C127   C     0.46160   0.71366   0.30711   0.00000  Uiso   1.00
O128   O     0.50781   0.89950   0.33139   0.00000  Uiso   1.00
C129   C     0.58196   0.85087   0.20114   0.00000  Uiso   1.00
C130   C     0.43427   0.64438   0.79977   0.00000  Uiso   1.00
O131   O     0.52587   0.58131   0.68933   0.00000  Uiso   1.00
O132   O     0.25119   0.73866   0.84257   0.00000  Uiso   1.00
O133   O     0.40849   0.82227   0.92385   0.00000  Uiso   1.00
O134   O     0.41858   0.90824   0.80139   0.00000  Uiso   1.00
O135   O     0.30907   0.89978   0.91278   0.00000  Uiso   1.00
O136   O     0.43348   0.81860   0.59995   0.00000  Uiso   1.00
O137   O     0.51474   0.73701   0.66086   0.00000  Uiso   1.00
O138   O     0.54900   0.90090   0.71708   0.00000  Uiso   1.00
O139   O     0.56298   0.06043   0.15084   0.00000  Uiso   1.00
C140   C     0.68714   0.08580   0.25902   0.00000  Uiso   1.00
C141   C     0.70470   0.24837   0.18455   0.00000  Uiso   1.00
O142   O     0.55324   0.14351   0.28551   0.00000  Uiso   1.00
C143   C     0.92591   0.21669   0.98917   0.00000  Uiso   1.00
C144   C     0.72103   0.11583   0.04756   0.00000  Uiso   1.00
C145   C     0.81199   0.30095   0.00371   0.00000  Uiso   1.00
C146   C     0.78410   0.01107   0.70635   0.00000  Uiso   1.00
C147   C     0.90761   0.08192   0.82850   0.00000  Uiso   1.00
C148   C     0.85835   0.90231   0.76127   0.00000  Uiso   1.00
O149   O     0.60204   0.05930   0.81248   0.00000  Uiso   1.00
O150   O     0.75500   0.16004   0.89644   0.00000  Uiso   1.00
O151   O     0.60478   0.16775   0.93092   0.00000  Uiso   1.00
O152   O     0.55889   0.33022   0.16278   0.00000  Uiso   1.00
C153   C     0.47970   0.34518   0.31312   0.00000  Uiso   1.00
O154   O     0.94429   0.55564   0.92773   0.00000  Uiso   1.00
C155   C     0.88934   0.49879   0.07671   0.00000  Uiso   1.00
C156   C     0.74491   0.44619   0.95984   0.00000  Uiso   1.00
C157   C     0.99286   0.26295   0.53880   0.00000  Uiso   1.00
C158   C     0.93538   0.30671   0.39130   0.00000  Uiso   1.00
O159   O     1.01288   0.44300   0.50595   0.00000  Uiso   1.00
O160   O     0.55909   0.33040   0.51624   0.00000  Uiso   1.00
C161   C     0.63556   0.51111   0.48724   0.00000  Uiso   1.00
O162   O     0.55792   0.44538   0.62234   0.00000  Uiso   1.00
O163   O     0.97942   0.64092   0.39394   0.00000  Uiso   1.00
C164   C     0.68821   0.43129   0.27115   0.00000  Uiso   1.00
C165   C     0.85087   0.70278   0.38227   0.00000  Uiso   1.00
C166   C     0.82859   0.29024   0.53074   0.00000  Uiso   1.00
C167   C     0.86792   0.63329   0.52026   0.00000  Uiso   1.00
C168   C     1.01552   0.79974   0.48286   0.00000  Uiso   1.00
O169   O     0.71416   0.25392   0.80538   0.00000  Uiso   1.00
C170   C     0.88911   0.29881   0.73208   0.00000  Uiso   1.00
O171   O     0.88737   0.43232   0.81642   0.00000  Uiso   1.00
O172   O     0.91742   0.50317   0.59699   0.00000  Uiso   1.00
O173   O     0.72281   0.43967   0.59058   0.00000  Uiso   1.00
O174   O     0.78589   0.37917   0.69642   0.00000  Uiso   1.00
C175   C     0.55494   0.48812   0.20883   0.00000  Uiso   1.00
C176   C     0.79890   0.62973   0.16010   0.00000  Uiso   1.00
O177   O     0.85782   0.62857   0.00937   0.00000  Uiso   1.00
C178   C     0.67462   0.60995   0.03665   0.00000  Uiso   1.00
C179   C     0.85018   0.78801   0.06601   0.00000  Uiso   1.00
C180   C     0.63155   0.81965   0.43666   0.00000  Uiso   1.00
C181   C     0.72816   0.79144   0.55845   0.00000  Uiso   1.00
C182   C     0.80283   0.98287   0.50052   0.00000  Uiso   1.00
O183   O     0.62205   0.88792   0.58626   0.00000  Uiso   1.00
C184   C     0.72787   0.63189   0.67944   0.00000  Uiso   1.00
O185   O     0.82448   0.54353   0.70042   0.00000  Uiso   1.00
C186   C     0.93953   0.74015   0.68778   0.00000  Uiso   1.00
C187   C     0.80441   0.63069   0.82473   0.00000  Uiso   1.00
C188   C     1.03229   0.74501   0.86812   0.00000  Uiso   1.00
C189   C     0.63121   0.74209   0.75689   0.00000  Uiso   1.00
C190   C     0.65844   0.77540   0.93770   0.00000  Uiso   1.00
C191   C     0.78087   0.96304   0.99339   0.00000  Uiso   1.00
O192   O     0.72333   0.93402   0.84801   0.00000  Uiso   1.00
O193   O     0.59436   0.90206   0.95296   0.00000  Uiso   1.00
H194   H     0.12897   0.05593  -0.00548   0.00000  Uiso   1.00
H195   H     0.05676   0.06624  -0.07218   0.00000  Uiso   1.00
H196   H     0.10113   0.15232   0.00752   0.00000  Uiso   1.00
H197   H     0.11963   0.16532   0.78586   0.00000  Uiso   1.00
H198   H     0.14166   0.07887   0.79501   0.00000  Uiso   1.00
H199   H     0.23780   0.18894   0.75901   0.00000  Uiso   1.00
H200   H     0.08793   0.05882   0.29758   0.00000  Uiso   1.00
H201   H     0.05800   0.07723   0.40088   0.00000  Uiso   1.00
H202   H     0.11638   0.01935   0.38311   0.00000  Uiso   1.00
H203   H     0.28278   0.12750   0.45695   0.00000  Uiso   1.00
H204   H     0.25481   0.21672   0.49327   0.00000  Uiso   1.00
H205   H     0.35802   0.24905   0.43160   0.00000  Uiso   1.00
H206   H     0.16906   0.26502   0.31415   0.00000  Uiso   1.00
H207   H     0.27940   0.34029   0.35208   0.00000  Uiso   1.00
H208   H     0.17323   0.27858   0.41363   0.00000  Uiso   1.00
H209   H    -0.03187   0.16288   0.37226   0.00000  Uiso   1.00
H210   H    -0.06819   0.06417   0.31428   0.00000  Uiso   1.00
H211   H    -0.14457   0.10753   0.33036   0.00000  Uiso   1.00
H212   H     0.32686   0.33916  -0.11161   0.00000  Uiso   1.00
H213   H     0.30821   0.31329  -0.01646   0.00000  Uiso   1.00
H214   H     0.21793   0.31941  -0.05740   0.00000  Uiso   1.00
H215   H    -0.03016   0.11736   0.10704   0.00000  Uiso   1.00
H216   H    -0.13625   0.04802   0.16055   0.00000  Uiso   1.00
H217   H    -0.03364   0.05320   0.18266   0.00000  Uiso   1.00
H218   H    -0.09078   0.25092   0.15708   0.00000  Uiso   1.00
H219   H    -0.01570   0.33061   0.22498   0.00000  Uiso   1.00
H220   H    -0.13759   0.24203   0.24488   0.00000  Uiso   1.00
H221   H     0.81720   0.39358   0.37165   0.00000  Uiso   1.00
H222   H     0.79019   0.48030   0.39624   0.00000  Uiso   1.00
H223   H     0.86326   0.45926   0.45641   0.00000  Uiso   1.00
H224   H     0.13858   0.40636   0.30166   0.00000  Uiso   1.00
H225   H     0.13326   0.41257   0.40068   0.00000  Uiso   1.00
H226   H     0.24532   0.48482   0.35235   0.00000  Uiso   1.00
H227   H     0.08796   0.24049   0.86391   0.00000  Uiso   1.00
H228   H     0.00532   0.27626   0.84443   0.00000  Uiso   1.00
H229   H     0.10732   0.34908   0.89970   0.00000  Uiso   1.00
H230   H     0.19071   0.25903   0.68277   0.00000  Uiso   1.00
H231   H     0.14897   0.31668   0.63239   0.00000  Uiso   1.00
H232   H     0.06733   0.21498   0.68865   0.00000  Uiso   1.00
H233   H     0.31171   0.47518   0.75131   0.00000  Uiso   1.00
H234   H     0.28956   0.36166   0.77770   0.00000  Uiso   1.00
H235   H     0.28524   0.43673   0.84578   0.00000  Uiso   1.00
H236   H     0.10223   0.48370   0.86556   0.00000  Uiso   1.00
H237   H    -0.01175   0.39343   0.90479   0.00000  Uiso   1.00
H238   H     0.06061   0.49938   0.96162   0.00000  Uiso   1.00
H239   H    -0.08303   0.58617   0.23760   0.00000  Uiso   1.00
H240   H    -0.08952   0.47619   0.22732   0.00000  Uiso   1.00
H241   H     0.01987   0.57987   0.22543   0.00000  Uiso   1.00
H242   H     0.03211   0.75546   0.06828   0.00000  Uiso   1.00
H243   H     0.08866   0.85249   0.11997   0.00000  Uiso   1.00
H244   H     0.02598   0.74192   0.16416   0.00000  Uiso   1.00
H245   H     0.07425   0.64273   0.02725   0.00000  Uiso   1.00
H246   H     0.12753   0.60525   0.10322   0.00000  Uiso   1.00
H247   H     0.19177   0.65824   0.01638   0.00000  Uiso   1.00
H248   H     0.29332   1.06645  -0.00976   0.00000  Uiso   1.00
H249   H     0.31877   1.02947   0.07188   0.00000  Uiso   1.00
H250   H     0.20914   1.00555   0.05666   0.00000  Uiso   1.00
H251   H     0.06777   0.74401   0.28642   0.00000  Uiso   1.00
H252   H     0.13573   0.84880   0.24876   0.00000  Uiso   1.00
H253   H     0.06018   0.83981   0.32952   0.00000  Uiso   1.00
H254   H     0.24076   0.99394   0.38270   0.00000  Uiso   1.00
H255   H     0.30849   0.97466   0.44653   0.00000  Uiso   1.00
H256   H     0.19662   0.93124   0.46864   0.00000  Uiso   1.00
H257   H     0.14846   0.78285   0.72250   0.00000  Uiso   1.00
H258   H     0.09393   0.67487   0.68519   0.00000  Uiso   1.00
H259   H     0.21677   0.74535   0.66059   0.00000  Uiso   1.00
H260   H     0.22778   1.00597   0.82371   0.00000  Uiso   1.00
H261   H     0.15140   0.93475   0.75003   0.00000  Uiso   1.00
H262   H     0.23691   0.91121   0.79297   0.00000  Uiso   1.00
H263   H     1.00795   0.91919   0.95745   0.00000  Uiso   1.00
H264   H     0.93137   0.84284   0.88426   0.00000  Uiso   1.00
H265   H     1.01687   0.95057   0.85655   0.00000  Uiso   1.00
H266   H     0.23562  -0.02625   0.18312   0.00000  Uiso   1.00
H267   H     0.18519   0.04780   0.18254   0.00000  Uiso   1.00
H268   H     0.16974  -0.01622   0.26165   0.00000  Uiso   1.00
H269   H     0.60743   0.01658   0.50940   0.00000  Uiso   1.00
H270   H     0.64549   0.09458   0.42262   0.00000  Uiso   1.00
H271   H     0.65272  -0.00815   0.42445   0.00000  Uiso   1.00
H272   H     0.52371  -0.00563   0.62635   0.00000  Uiso   1.00
H273   H     0.57455   0.10178   0.67998   0.00000  Uiso   1.00
H274   H     0.44238   0.02471   0.68417   0.00000  Uiso   1.00
H275   H     0.40176   0.06726   0.79242   0.00000  Uiso   1.00
H276   H     0.48325   0.18037   0.74771   0.00000  Uiso   1.00
H277   H     0.35593   0.12064   0.74420   0.00000  Uiso   1.00
H278   H     0.37077   0.23895   0.03407   0.00000  Uiso   1.00
H279   H     0.48045   0.33577   0.01961   0.00000  Uiso   1.00
H280   H     0.40793   0.33047   0.10264   0.00000  Uiso   1.00
H281   H     0.22831   0.22502   0.07217   0.00000  Uiso   1.00
H282   H     0.15195   0.14932   0.13785   0.00000  Uiso   1.00
H283   H     0.27110   0.24510   0.16247   0.00000  Uiso   1.00
H284   H     0.32902   0.44505   0.15386   0.00000  Uiso   1.00
H285   H     0.29925   0.40227   0.24737   0.00000  Uiso   1.00
H286   H     0.24000   0.45845   0.20913   0.00000  Uiso   1.00
H287   H     0.15828   0.55858   0.21602   0.00000  Uiso   1.00
H288   H     0.26509   0.64565   0.25932   0.00000  Uiso   1.00
H289   H     0.15859   0.64941   0.25405   0.00000  Uiso   1.00
H290   H     0.54897   0.11197   0.54345   0.00000  Uiso   1.00
H291   H     0.62623   0.22122   0.58424   0.00000  Uiso   1.00
H292   H     0.64980   0.19683   0.49235   0.00000  Uiso   1.00
H293   H     0.34975   0.09556   0.54127   0.00000  Uiso   1.00
H294   H     0.36825   0.19904   0.57080   0.00000  Uiso   1.00
H295   H     0.42508   0.14524   0.61637   0.00000  Uiso   1.00
H296   H     0.19449   0.41210   0.51367   0.00000  Uiso   1.00
H297   H     0.25045   0.33492   0.53027   0.00000  Uiso   1.00
H298   H     0.30237   0.43256   0.46189   0.00000  Uiso   1.00
H299   H     0.48517   0.63486   0.54691   0.00000  Uiso   1.00
H300   H     0.39132   0.62507   0.49166   0.00000  Uiso   1.00
H301   H     0.44895   0.55690   0.46688   0.00000  Uiso   1.00
H302   H     0.66903   0.41610   0.81657   0.00000  Uiso   1.00
H303   H     0.65502   0.45743   0.73532   0.00000  Uiso   1.00
H304   H     0.60507   0.33499   0.74747   0.00000  Uiso   1.00
H305   H     0.46529   0.48131   0.90147   0.00000  Uiso   1.00
H306   H     0.57890   0.54859   0.85546   0.00000  Uiso   1.00
H307   H     0.55950   0.46947   0.93496   0.00000  Uiso   1.00
H308   H     0.07547   0.35919   0.09987   0.00000  Uiso   1.00
H309   H     0.09053   0.27981   0.04333   0.00000  Uiso   1.00
H310   H     0.19224   0.40105   0.05110   0.00000  Uiso   1.00
H311   H     0.35525   0.61106   0.16156   0.00000  Uiso   1.00
H312   H     0.24620   0.58433   0.10679   0.00000  Uiso   1.00
H313   H     0.34607   0.70585   0.12059   0.00000  Uiso   1.00
H314   H     0.23029   0.54385  -0.02517   0.00000  Uiso   1.00
H315   H     0.32640   0.55084  -0.07513   0.00000  Uiso   1.00
H316   H     0.30622   0.64541  -0.08287   0.00000  Uiso   1.00
H317   H     0.48370   0.59548   0.09258   0.00000  Uiso   1.00
H318   H     0.50901   0.59975  -0.00555   0.00000  Uiso   1.00
H319   H     0.39132   0.50667   0.02507   0.00000  Uiso   1.00
H320   H     0.33211   0.90732   0.64538   0.00000  Uiso   1.00
H321   H     0.26825   0.88394   0.55907   0.00000  Uiso   1.00
H322   H     0.38892   0.97898   0.56014   0.00000  Uiso   1.00
H323   H     0.41391   0.69831   0.35864   0.00000  Uiso   1.00
H324   H     0.52938   0.71410   0.30965   0.00000  Uiso   1.00
H325   H     0.42052   0.65964   0.26948   0.00000  Uiso   1.00
H326   H     0.54982   0.80689   0.15103   0.00000  Uiso   1.00
H327   H     0.63899   0.84085   0.23191   0.00000  Uiso   1.00
H328   H     0.61621   0.91627   0.18156   0.00000  Uiso   1.00
H329   H     0.43301   0.58637   0.82616   0.00000  Uiso   1.00
H330   H     0.36601   0.63208   0.78389   0.00000  Uiso   1.00
H331   H     0.46197   0.70085   0.83690   0.00000  Uiso   1.00
H332   H     0.72760   0.13825   0.30540   0.00000  Uiso   1.00
H333   H     0.73577   0.08548   0.21445   0.00000  Uiso   1.00
H334   H     0.65512   0.01851   0.28399   0.00000  Uiso   1.00
H335   H     0.66722   0.26729   0.14294   0.00000  Uiso   1.00
H336   H     0.76928   0.25470   0.15158   0.00000  Uiso   1.00
H337   H     0.71934   0.28719   0.23488   0.00000  Uiso   1.00
H338   H     0.97726   0.28368   0.96733   0.00000  Uiso   1.00
H339   H     0.94664   0.16706   0.97162   0.00000  Uiso   1.00
H340   H     0.93288   0.22066   1.05228   0.00000  Uiso   1.00
H341   H     0.76502   0.13055   0.09575   0.00000  Uiso   1.00
H342   H     0.67610   0.04052   0.03910   0.00000  Uiso   1.00
H343   H     0.67667   0.14856   0.05914   0.00000  Uiso   1.00
H344   H     0.84900   0.34280  -0.04521   0.00000  Uiso   1.00
H345   H     0.85313   0.32613   0.05535   0.00000  Uiso   1.00
H346   H     0.74244   0.29442   0.01251   0.00000  Uiso   1.00
H347   H     0.75368   0.05478   0.72666   0.00000  Uiso   1.00
H348   H     0.72787  -0.05256   0.68072   0.00000  Uiso   1.00
H349   H     0.84715   0.04638   0.66788   0.00000  Uiso   1.00
H350   H     0.97178   0.11417   0.78825   0.00000  Uiso   1.00
H351   H     0.93306   0.06919   0.88025   0.00000  Uiso   1.00
H352   H     0.87923   0.12481   0.84357   0.00000  Uiso   1.00
H353   H     0.93831   0.93985   0.75758   0.00000  Uiso   1.00
H354   H     0.83617   0.87272   0.70363   0.00000  Uiso   1.00
H355   H     0.83706   0.84665   0.80100   0.00000  Uiso   1.00
H356   H     0.46167   0.27885   0.32542   0.00000  Uiso   1.00
H357   H     0.41957   0.35073   0.30081   0.00000  Uiso   1.00
H358   H     0.51683   0.39100   0.35915   0.00000  Uiso   1.00
H359   H     0.92624   0.56507   0.10425   0.00000  Uiso   1.00
H360   H     0.94237   0.47506   0.06441   0.00000  Uiso   1.00
H361   H     0.82717   0.44953   0.11253   0.00000  Uiso   1.00
H362   H     0.70004   0.41109   1.00772   0.00000  Uiso   1.00
H363   H     0.74451   0.39717   0.92108   0.00000  Uiso   1.00
H364   H     0.71114   0.47843   0.93519   0.00000  Uiso   1.00
H365   H     1.05750   0.26780   0.51163   0.00000  Uiso   1.00
H366   H     0.93891   0.19113   0.54516   0.00000  Uiso   1.00
H367   H     1.01786   0.29820   0.59354   0.00000  Uiso   1.00
H368   H     0.92648   0.35625   0.35540   0.00000  Uiso   1.00
H369   H     0.87150   0.23837   0.38194   0.00000  Uiso   1.00
H370   H     0.99520   0.30660   0.36527   0.00000  Uiso   1.00
H371   H     0.56293   0.49290   0.46833   0.00000  Uiso   1.00
H372   H     0.68665   0.51374   0.44111   0.00000  Uiso   1.00
H373   H     0.66969   0.58205   0.51083   0.00000  Uiso   1.00
H374   H     0.67870   0.38685   0.31732   0.00000  Uiso   1.00
H375   H     0.72372   0.50714   0.28611   0.00000  Uiso   1.00
H376   H     0.73378   0.43128   0.22696   0.00000  Uiso   1.00
H377   H     0.87890   0.73427   0.32573   0.00000  Uiso   1.00
H378   H     0.82822   0.74702   0.41578   0.00000  Uiso   1.00
H379   H     0.78179   0.63501   0.37912   0.00000  Uiso   1.00
H380   H     0.78808   0.21399   0.52470   0.00000  Uiso   1.00
H381   H     0.79365   0.30939   0.49374   0.00000  Uiso   1.00
H382   H     0.83607   0.31571   0.58687   0.00000  Uiso   1.00
H383   H     0.80563   0.57014   0.50618   0.00000  Uiso   1.00
H384   H     0.84812   0.67858   0.54902   0.00000  Uiso   1.00
H385   H     0.91545   0.62703   0.55443   0.00000  Uiso   1.00
H386   H     1.07054   0.79295   0.51496   0.00000  Uiso   1.00
H387   H     0.97764   0.81834   0.52519   0.00000  Uiso   1.00
H388   H     1.04729   0.85834   0.44990   0.00000  Uiso   1.00
H389   H     0.92297   0.29817   0.77896   0.00000  Uiso   1.00
H390   H     0.93494   0.33965   0.68367   0.00000  Uiso   1.00
H391   H     0.83391   0.22790   0.71125   0.00000  Uiso   1.00
H392   H     0.59042   0.53900   0.24944   0.00000  Uiso   1.00
H393   H     0.47917   0.46288   0.20577   0.00000  Uiso   1.00
H394   H     0.59246   0.51338   0.15086   0.00000  Uiso   1.00
H395   H     0.77688   0.55452   0.15875   0.00000  Uiso   1.00
H396   H     0.75531   0.64497   0.20484   0.00000  Uiso   1.00
H397   H     0.86982   0.66935   0.18056   0.00000  Uiso   1.00
H398   H     0.63462   0.63453   0.06828   0.00000  Uiso   1.00
H399   H     0.64632   0.53596   0.04007   0.00000  Uiso   1.00
H400   H     0.67316   0.62645  -0.02261   0.00000  Uiso   1.00
H401   H     0.84056   0.80436   0.00767   0.00000  Uiso   1.00
H402   H     0.92230   0.82008   0.07982   0.00000  Uiso   1.00
H403   H     0.80775   0.79932   0.11111   0.00000  Uiso   1.00
H404   H     0.57854   0.83758   0.41804   0.00000  Uiso   1.00
H405   H     0.59295   0.74375   0.43765   0.00000  Uiso   1.00
H406   H     0.69306   0.84396   0.39208   0.00000  Uiso   1.00
H407   H     0.78297   0.82460   0.60079   0.00000  Uiso   1.00
H408   H     0.75767   0.77595   0.50590   0.00000  Uiso   1.00
H409   H     0.66772   0.73222   0.58153   0.00000  Uiso   1.00
H410   H     0.86134   0.98292   0.52680   0.00000  Uiso   1.00
H411   H     0.78670   1.03259   0.52207   0.00000  Uiso   1.00
H412   H     0.82453   0.98827   0.43745   0.00000  Uiso   1.00
H413   H     0.71338   0.59098   0.62710   0.00000  Uiso   1.00
H414   H     0.74317   0.69986   0.67028   0.00000  Uiso   1.00
H415   H     0.67201   0.59893   0.72687   0.00000  Uiso   1.00
H416   H     0.99243   0.72589   0.66204   0.00000  Uiso   1.00
H417   H     0.97019   0.78903   0.73478   0.00000  Uiso   1.00
H418   H     0.92532   0.77592   0.64752   0.00000  Uiso   1.00
H419   H     0.72836   0.59474   0.84009   0.00000  Uiso   1.00
H420   H     0.83786   0.69596   0.84909   0.00000  Uiso   1.00
H421   H     0.83268   0.59120   0.84435   0.00000  Uiso   1.00
H422   H     1.06767   0.72127   0.90266   0.00000  Uiso   1.00
H423   H     1.01433   0.72141   0.81148   0.00000  Uiso   1.00
H424   H     0.96450   0.72176   0.90491   0.00000  Uiso   1.00
H425   H     0.68155   0.77020   0.71152   0.00000  Uiso   1.00
H426   H     0.65762   0.71425   0.79764   0.00000  Uiso   1.00
H427   H     0.61596   0.79135   0.78429   0.00000  Uiso   1.00
H428   H     0.65949   0.76325   0.99898   0.00000  Uiso   1.00
H429   H     0.71817   0.76966   0.91094   0.00000  Uiso   1.00
H430   H     0.59100   0.72386   0.91592   0.00000  Uiso   1.00
H431   H     0.81099   1.03504   0.98695   0.00000  Uiso   1.00
H432   H     0.83885   0.95021   0.98506   0.00000  Uiso   1.00
H433   H     0.75225   0.94972   1.05280   0.00000  Uiso   1.00
loop_
_geom_bond_atom_site_label_1
_geom_bond_atom_site_label_2
_geom_bond_distance
_geom_bond_site_symmetry_2
_ccdc_geom_bond_type
Si1    C52     1.851   .     S
Si1    C58     1.861   .     S
Si1    C53     1.844   1_554 S
Si1    O95     1.618   1_554 S
Si2    C54     1.837   .     S
Si2    C55     1.843   .     S
Si2    C56     1.807   .     S
Si2    O87     1.545   .     S
Si3    C57     1.884   .     S
Si3    C59     1.822   .     S
Si3    C60     1.875   .     S
Si3    O99     1.553   .     S
Si4    O62     1.595   .     S
Si4    C70     1.911   .     S
Si4    C61     1.859   1_455 S
Si4    O163    1.561   1_455 S
Si5    O68     1.604   .     S
Si5    O75     1.638   .     S
Si5    O159    1.589   1_455 S
Si5    O172    1.692   1_455 S
Si6    O62     1.558   .     S
Si6    C63     1.874   .     S
Si6    O76     1.565   .     S
Si6    C102    1.823   .     S
Si7    C64     1.874   .     S
Si7    C65     1.809   .     S
Si7    C66     1.813   .     S
Si7    O69     1.624   .     S
Si8    C67     1.837   .     S
Si8    O80     1.616   .     S
Si8    O154    1.613   1_455 S
Si8    O171    1.651   1_455 S
Si9    O68     1.669   .     S
Si9    O69     1.633   .     S
Si9    O81     1.604   .     S
Si9    O108    1.654   .     S
Si10   C71     1.836   .     S
Si10   C72     1.846   .     S
Si10   O73     1.581   .     S
Si10   O118    1.608   .     S
Si11   O73     1.584   .     S
Si11   C74     1.812   .     S
Si11   O83     1.522   1_554 S
Si11   O135    1.587   1_554 S
Si12   O75     1.651   .     S
Si12   O76     1.541   .     S
Si12   O78     1.645   .     S
Si12   O123    1.595   .     S
Si13   C77     1.874   .     S
Si13   O78     1.676   .     S
Si13   C79     1.852   .     S
Si13   O120    1.594   .     S
Si14   O80     1.629   .     S
Si14   O81     1.605   .     S
Si14   C82     1.830   .     S
Si14   O132    1.695   .     S
Si15   O83     1.617   .     S
Si15   C84     1.913   .     S
Si15   C85     1.824   1_455 S
Si15   C188    1.791   1_455 S
Si16   O88     1.636   .     S
Si16   O139    1.676   .     S
Si16   O119    1.631   1_545 S
Si16   O122    1.634   1_545 S
Si17   C86     1.869   .     S
Si17   O87     1.582   .     S
Si17   O90     1.652   .     S
Si17   O96     1.623   .     S
Si18   O88     1.652   .     S
Si18   O97     1.589   .     S
Si18   O94     1.607   1_554 S
Si18   O151    1.652   1_554 S
Si19   C89     1.885   .     S
Si19   O91     1.594   .     S
Si19   O124    1.601   1_545 S
Si19   O128    1.579   1_545 S
Si20   O90     1.603   .     S
Si20   O91     1.644   .     S
Si20   O104    1.604   .     S
Si20   O142    1.595   .     S
Si21   C92     1.802   .     S
Si21   O149    1.731   .     S
Si21   O134    1.653   1_545 S
Si21   O138    1.610   1_545 S
Si22   C93     1.858   .     S
Si22   O94     1.554   .     S
Si22   O95     1.548   .     S
Si22   O109    1.626   .     S
Si23   O96     1.613   .     S
Si23   O97     1.598   .     S
Si23   C98     1.832   .     S
Si23   O152    1.580   .     S
Si24   O99     1.603   .     S
Si24   C100    1.881   .     S
Si24   C101    1.887   .     S
Si24   C114    1.831   .     S
Si25   C103    1.857   .     S
Si25   O104    1.655   .     S
Si25   C105    1.861   .     S
Si25   O160    1.647   .     S
Si26   C106    1.852   .     S
Si26   C107    1.954   .     S
Si26   O108    1.650   .     S
Si26   O112    1.603   .     S
Si27   O109    1.625   .     S
Si27   C110    1.850   .     S
Si27   C111    1.868   .     S
Si27   O113    1.638   .     S
Si28   O112    1.667   .     S
Si28   O113    1.644   .     S
Si28   O131    1.678   .     S
Si28   O162    1.696   .     S
Si29   C115    1.777   .     S
Si29   C116    1.885   .     S
Si29   C117    1.825   .     S
Si29   O121    1.590   .     S
Si30   O118    1.581   .     S
Si30   O119    1.583   .     S
Si30   O120    1.617   .     S
Si30   O126    1.597   .     S
Si31   O121    1.609   .     S
Si31   O122    1.698   .     S
Si31   O133    1.618   1_554 S
Si31   O193    1.660   1_554 S
Si32   O123    1.605   .     S
Si32   O124    1.545   .     S
Si32   C125    1.847   .     S
Si32   O136    1.600   .     S
Si33   O126    1.600   .     S
Si33   C127    1.879   .     S
Si33   O128    1.638   .     S
Si33   C129    1.846   .     S
Si34   C130    1.843   .     S
Si34   O131    1.619   .     S
Si34   O137    1.604   .     S
Si34   C189    1.811   .     S
Si35   O132    1.706   .     S
Si35   O133    1.609   .     S
Si35   O134    1.614   .     S
Si35   O135    1.645   .     S
Si36   O136    1.662   .     S
Si36   O137    1.631   .     S
Si36   O138    1.674   .     S
Si36   O183    1.585   .     S
Si37   O139    1.593   .     S
Si37   C140    1.877   .     S
Si37   C141    1.944   .     S
Si37   O142    1.586   .     S
Si38   C144    1.814   .     S
Si38   C145    1.841   .     S
Si38   C143    1.864   1_554 S
Si38   O150    1.605   1_554 S
Si39   C146    1.816   .     S
Si39   C147    1.781   .     S
Si39   C148    1.817   1_545 S
Si39   O192    1.617   1_545 S
Si40   O149    1.709   .     S
Si40   O150    1.653   .     S
Si40   O151    1.651   .     S
Si40   O169    1.655   .     S
Si41   O152    1.597   .     S
Si41   C153    1.857   .     S
Si41   C164    1.821   .     S
Si41   C175    1.878   .     S
Si42   C155    1.910   .     S
Si42   O177    1.647   .     S
Si42   O154    1.577   1_554 S
Si42   C156    1.813   1_554 S
Si43   C157    1.938   .     S
Si43   C158    1.807   .     S
Si43   O159    1.637   .     S
Si43   C166    1.836   .     S
Si44   O160    1.676   .     S
Si44   C161    1.903   .     S
Si44   O162    1.613   .     S
Si44   O173    1.641   .     S
Si45   O163    1.553   .     S
Si45   C165    1.800   .     S
Si45   C167    1.798   .     S
Si45   C168    1.855   .     S
Si46   O169    1.691   .     S
Si46   C170    1.821   .     S
Si46   O171    1.650   .     S
Si46   O174    1.611   .     S
Si47   O172    1.686   .     S
Si47   O173    1.677   .     S
Si47   O174    1.618   .     S
Si47   O185    1.556   .     S
Si48   C176    1.819   .     S
Si48   O177    1.626   .     S
Si48   C178    1.833   .     S
Si48   C179    1.886   .     S
Si49   C180    1.880   .     S
Si49   C181    1.863   .     S
Si49   C182    1.884   .     S
Si49   O183    1.650   .     S
Si50   C184    1.803   .     S
Si50   O185    1.563   .     S
Si50   C186    1.887   .     S
Si50   C187    1.876   .     S
Si51   C190    1.883   .     S
Si51   C191    1.847   .     S
Si51   O192    1.581   .     S
Si51   O193    1.563   .     S
C52    H194    1.130   .     S
C52    H195    1.138   .     S
C52    H196    1.195   .     S
C53    H197    1.089   .     S
C53    H198    1.097   .     S
C53    H199    1.122   .     S
C53    Si1     1.844   1_556 S
C54    H200    1.130   .     S
C54    H201    1.149   .     S
C54    H202    1.064   .     S
C55    H203    1.142   .     S
C55    H204    1.108   .     S
C55    H205    1.075   .     S
C56    H206    1.095   .     S
C56    H207    1.099   .     S
C56    H208    1.115   .     S
C57    H209    1.112   .     S
C57    H210    1.047   .     S
C57    H211    1.112   .     S
C58    H212    1.087   .     S
C58    H213    1.120   .     S
C58    H214    1.101   .     S
C59    H215    1.102   .     S
C59    H216    1.065   .     S
C59    H217    1.062   .     S
C60    H218    1.074   .     S
C60    H219    1.105   .     S
C60    H220    1.034   .     S
C61    H221    1.120   .     S
C61    H222    1.110   .     S
C61    H223    1.066   .     S
C61    Si4     1.859   1_655 S
C63    H224    1.145   .     S
C63    H225    1.058   .     S
C63    H226    1.098   .     S
C64    H227    1.104   .     S
C64    H228    1.129   .     S
C64    H229    1.125   .     S
C65    H230    1.139   .     S
C65    H231    1.073   .     S
C65    H232    1.105   .     S
C66    H233    1.090   .     S
C66    H234    1.072   .     S
C66    H235    1.127   .     S
C67    H236    1.108   .     S
C67    H237    1.100   .     S
C67    H238    1.138   .     S
C70    H239    1.105   .     S
C70    H240    1.089   .     S
C70    H241    1.079   .     S
C71    H242    1.022   .     S
C71    H243    1.107   .     S
C71    H244    1.104   .     S
C72    H245    1.156   .     S
C72    H246    1.155   .     S
C72    H247    1.093   .     S
C74    H248    1.101   .     S
C74    H249    1.023   .     S
C74    H250    1.077   .     S
C77    H251    1.159   .     S
C77    H252    1.054   .     S
C77    H253    1.131   .     S
C79    H254    1.049   .     S
C79    H255    1.095   .     S
C79    H256    1.085   .     S
C82    H257    1.075   .     S
C82    H258    1.060   .     S
C82    H259    1.133   .     S
O83    Si11    1.522   1_556 S
C84    H260    1.113   .     S
C84    H261    1.102   .     S
C84    H262    1.097   .     S
C85    H263    1.142   .     S
C85    H264    1.074   .     S
C85    H265    1.120   .     S
C85    Si15    1.824   1_655 S
C86    H266    1.137   .     S
C86    H267    1.133   .     S
C86    H268    1.065   .     S
C89    H269    1.146   .     S
C89    H270    1.148   .     S
C89    H271    1.112   .     S
C92    H272    1.114   .     S
C92    H273    1.142   .     S
C92    H274    1.127   .     S
C93    H275    1.101   .     S
C93    H276    1.159   .     S
C93    H277    1.080   .     S
O94    Si18    1.607   1_556 S
O95    Si1     1.618   1_556 S
C98    H278    1.088   .     S
C98    H279    1.135   .     S
C98    H280    1.045   .     S
C100   H281    1.087   .     S
C100   H282    1.129   .     S
C100   H283    1.083   .     S
C101   H284    1.081   .     S
C101   H285    1.123   .     S
C101   H286    1.086   .     S
C102   H287    1.070   .     S
C102   H288    1.100   .     S
C102   H289    1.108   .     S
C103   H290    1.081   .     S
C103   H291    1.083   .     S
C103   H292    1.091   .     S
C105   H293    1.067   .     S
C105   H294    1.122   .     S
C105   H295    1.085   .     S
C106   H296    1.147   .     S
C106   H297    1.154   .     S
C106   H298    1.125   .     S
C107   H299    1.141   .     S
C107   H300    1.095   .     S
C107   H301    1.153   .     S
C110   H302    1.075   .     S
C110   H303    1.077   .     S
C110   H304    1.130   .     S
C111   H305    1.100   .     S
C111   H306    1.142   .     S
C111   H307    1.090   .     S
C114   H308    1.123   .     S
C114   H309    1.125   .     S
C114   H310    1.144   .     S
C115   H311    1.123   .     S
C115   H312    1.149   .     S
C115   H313    1.141   .     S
C116   H314    1.126   .     S
C116   H315    1.055   .     S
C116   H316    1.123   .     S
C117   H317    1.109   .     S
C117   H318    1.122   .     S
C117   H319    1.135   .     S
O119   Si16    1.631   1_565 S
O122   Si16    1.634   1_565 S
O124   Si19    1.601   1_565 S
C125   H320    1.167   .     S
C125   H321    1.088   .     S
C125   H322    1.088   .     S
C127   H323    1.116   .     S
C127   H324    1.110   .     S
C127   H325    1.065   .     S
O128   Si19    1.579   1_565 S
C129   H326    1.118   .     S
C129   H327    1.201   .     S
C129   H328    1.027   .     S
C130   H329    1.107   .     S
C130   H330    1.082   .     S
C130   H331    1.058   .     S
O133   Si31    1.618   1_556 S
O134   Si21    1.653   1_565 S
O135   Si11    1.587   1_556 S
O138   Si21    1.610   1_565 S
C140   H332    1.157   .     S
C140   H333    1.092   .     S
C140   H334    1.093   .     S
C141   H335    1.148   .     S
C141   H336    1.134   .     S
C141   H337    1.062   .     S
C143   H338    1.088   .     S
C143   H339    1.092   .     S
C143   H340    1.139   .     S
C143   Si38    1.864   1_556 S
C144   H341    1.098   .     S
C144   H342    1.120   .     S
C144   H343    1.127   .     S
C145   H344    1.089   .     S
C145   H345    1.117   .     S
C145   H346    1.088   .     S
C146   H347    1.128   .     S
C146   H348    1.111   .     S
C146   H349    1.100   .     S
C147   H350    1.127   .     S
C147   H351    1.113   .     S
C147   H352    1.068   .     S
C148   H353    1.125   .     S
C148   H354    1.128   .     S
C148   H355    1.104   .     S
C148   Si39    1.817   1_565 S
O150   Si38    1.605   1_556 S
O151   Si18    1.652   1_556 S
C153   H356    1.045   .     S
C153   H357    1.073   .     S
C153   H358    1.091   .     S
O154   Si8     1.613   1_655 S
O154   Si42    1.577   1_556 S
C155   H359    1.090   .     S
C155   H360    1.138   .     S
C155   H361    1.115   .     S
C156   H362    1.070   .     S
C156   H363    1.064   .     S
C156   H364    1.081   .     S
C156   Si42    1.813   1_556 S
C157   H365    1.100   .     S
C157   H366    1.093   .     S
C157   H367    1.115   .     S
C158   H368    1.155   .     S
C158   H369    1.117   .     S
C158   H370    1.058   .     S
O159   Si5     1.589   1_655 S
C161   H371    1.137   .     S
C161   H372    1.122   .     S
C161   H373    1.122   .     S
O163   Si4     1.561   1_655 S
C164   H374    1.095   .     S
C164   H375    1.147   .     S
C164   H376    1.051   .     S
C165   H377    1.121   .     S
C165   H378    1.135   .     S
C165   H379    1.137   .     S
C166   H380    1.126   .     S
C166   H381    1.064   .     S
C166   H382    1.068   .     S
C167   H383    1.076   .     S
C167   H384    1.082   .     S
C167   H385    1.070   .     S
C168   H386    1.156   .     S
C168   H387    1.086   .     S
C168   H388    1.049   .     S
C170   H389    1.039   .     S
C170   H390    1.110   .     S
C170   H391    1.147   .     S
O171   Si8     1.651   1_655 S
O172   Si5     1.692   1_655 S
C175   H392    1.054   .     S
C175   H393    1.091   .     S
C175   H394    1.151   .     S
C176   H395    1.145   .     S
C176   H396    1.148   .     S
C176   H397    1.084   .     S
C178   H398    1.067   .     S
C178   H399    1.106   .     S
C178   H400    1.114   .     S
C179   H401    1.134   .     S
C179   H402    1.060   .     S
C179   H403    1.106   .     S
C180   H404    1.130   .     S
C180   H405    1.117   .     S
C180   H406    1.149   .     S
C181   H407    1.112   .     S
C181   H408    1.113   .     S
C181   H409    1.065   .     S
C182   H410    1.094   .     S
C182   H411    1.063   .     S
C182   H412    1.154   .     S
C184   H413    1.109   .     S
C184   H414    1.074   .     S
C184   H415    1.135   .     S
C186   H416    1.084   .     S
C186   H417    1.108   .     S
C186   H418    1.073   .     S
C187   H419    1.092   .     S
C187   H420    1.051   .     S
C187   H421    1.074   .     S
C188   H422    1.091   .     S
C188   H423    1.078   .     S
C188   H424    1.140   .     S
C188   Si15    1.791   1_655 S
C189   H425    1.054   .     S
C189   H426    1.107   .     S
C189   H427    1.085   .     S
C190   H428    1.128   .     S
C190   H429    1.108   .     S
C190   H430    1.088   .     S
C191   H431    1.076   .     S
C191   H432    1.078   .     S
C191   H433    1.118   .     S
O192   Si39    1.617   1_565 S
O193   Si31    1.660   1_556 S
