data_333-13-11-12-15-30-9
_audit_creation_date              2025-03-07
_audit_creation_method            'Materials Studio'
_symmetry_space_group_name_H-M    'P1'
_symmetry_Int_Tables_number       1
_symmetry_cell_setting            triclinic
loop_
_symmetry_equiv_pos_as_xyz
  x,y,z
_cell_length_a                    17.7579
_cell_length_b                    15.5265
_cell_length_c                    19.3097
_cell_angle_alpha                 90.7769
_cell_angle_beta                  88.8001
_cell_angle_gamma                 123.4614
loop_
_atom_site_label
_atom_site_type_symbol
_atom_site_fract_x
_atom_site_fract_y
_atom_site_fract_z
_atom_site_U_iso_or_equiv
_atom_site_adp_type
_atom_site_occupancy
Si1    Si    0.13714  -0.04703   0.07505   0.00000  Uiso   1.00
Si2    Si    0.08120   0.24405   0.20294   0.00000  Uiso   1.00
Si3    Si    0.20752   0.13972  -0.01824   0.00000  Uiso   1.00
Si4    Si   -0.10300   0.10814   0.54933   0.00000  Uiso   1.00
Si5    Si    0.17810   0.21212   0.31940   0.00000  Uiso   1.00
Si6    Si    0.05950   0.14644   0.89597   0.00000  Uiso   1.00
Si7    Si    0.16971   0.11068   0.68564   0.00000  Uiso   1.00
Si8    Si    0.20058   0.30028   0.06722   0.00000  Uiso   1.00
Si9    Si    0.12393   0.61418   0.24162   0.00000  Uiso   1.00
Si10   Si    0.19843   0.44289  -0.03646   0.00000  Uiso   1.00
Si11   Si   -0.09866   0.53835   0.51381   0.00000  Uiso   1.00
Si12   Si    0.27926   0.58348   0.25441   0.00000  Uiso   1.00
Si13   Si    0.20483   0.27612   0.78926   0.00000  Uiso   1.00
Si14   Si    0.05441   0.46968   0.89801   0.00000  Uiso   1.00
Si15   Si    0.17201   0.40399   0.69129   0.00000  Uiso   1.00
Si16   Si    0.15835   0.88919   0.40446   0.00000  Uiso   1.00
Si17   Si    0.59072   0.07256   0.05418   0.00000  Uiso   1.00
Si18   Si    0.53950   0.20014  -0.03432   0.00000  Uiso   1.00
Si19   Si    0.54798   0.00456   0.75922   0.00000  Uiso   1.00
Si20   Si    0.36724   0.15961   0.89425   0.00000  Uiso   1.00
Si21   Si    0.53899   0.18543   0.69395   0.00000  Uiso   1.00
Si22   Si    0.53511   0.35303   0.06769   0.00000  Uiso   1.00
Si23   Si    0.35342   0.48301   0.15829   0.00000  Uiso   1.00
Si24   Si    0.50671   0.50477  -0.02263   0.00000  Uiso   1.00
Si25   Si    0.47422   0.45794   0.25405   0.00000  Uiso   1.00
Si26   Si    0.50840   0.33020   0.79161   0.00000  Uiso   1.00
Si27   Si    0.35856   0.46772   0.87653   0.00000  Uiso   1.00
Si28   Si    0.50098   0.48701   0.69859   0.00000  Uiso   1.00
Si29   Si    0.51771   0.66648   0.07961   0.00000  Uiso   1.00
Si30   Si    0.35645   1.02061   0.35096   0.00000  Uiso   1.00
Si31   Si    0.55483   0.86344  -0.00280   0.00000  Uiso   1.00
Si32   Si    0.31253   0.76266   0.63556   0.00000  Uiso   1.00
Si33   Si    0.52174   0.66626   0.79267   0.00000  Uiso   1.00
Si34   Si    0.36728   0.82513   0.99004   0.00000  Uiso   1.00
Si35   Si    0.49740   0.80393   0.68353   0.00000  Uiso   1.00
Si36   Si    0.93660   0.16803  -0.01136   0.00000  Uiso   1.00
Si37   Si    0.71581  -0.00168   0.46949   0.00000  Uiso   1.00
Si38   Si    0.63534   0.22248   0.55579   0.00000  Uiso   1.00
Si39   Si    0.74065   0.17187   0.37853   0.00000  Uiso   1.00
Si40   Si    0.87538  -0.02800   0.81858   0.00000  Uiso   1.00
Si41   Si    0.83371   0.06463   0.69954   0.00000  Uiso   1.00
Si42   Si    0.64364   0.49252   0.18830   0.00000  Uiso   1.00
Si43   Si    0.81641   0.56282  -0.04049   0.00000  Uiso   1.00
Si44   Si    0.74472   0.35626   0.43349   0.00000  Uiso   1.00
Si45   Si    0.55739   0.47692   0.55092   0.00000  Uiso   1.00
Si46   Si    0.74391   0.44904   0.29852   0.00000  Uiso   1.00
Si47   Si    0.64938   0.51165   0.88296   0.00000  Uiso   1.00
Si48   Si    0.85551   0.54069   0.66604   0.00000  Uiso   1.00
Si49   Si    0.67685   0.79898   0.17275   0.00000  Uiso   1.00
Si50   Si    0.57289   0.79942   0.53895   0.00000  Uiso   1.00
Si51   Si    0.67825   0.83324   0.89422   0.00000  Uiso   1.00
C52    C     0.21820  -0.01400   0.14521   0.00000  Uiso   1.00
C53    C     0.02674   0.92858   0.11074   0.00000  Uiso   1.00
C54    C     0.10663   0.82523   0.04141   0.00000  Uiso   1.00
C55    C     0.96711   0.12414   0.21457   0.00000  Uiso   1.00
O56    O     0.17862   0.03444   0.01428   0.00000  Uiso   1.00
C57    C    -0.03265   0.24058   0.51696   0.00000  Uiso   1.00
O58    O     0.15312   0.25910   0.26043   0.00000  Uiso   1.00
C59    C     0.07138   0.11482   0.36375   0.00000  Uiso   1.00
C60    C     0.23982   0.31502   0.38596   0.00000  Uiso   1.00
C61    C     0.23536   0.15664   0.27461   0.00000  Uiso   1.00
O62    O     0.12644   0.12074   0.93291   0.00000  Uiso   1.00
C63    C    -0.06208   0.03354   0.51104   0.00000  Uiso   1.00
C64    C     0.05718   0.08560   0.66463   0.00000  Uiso   1.00
C65    C     0.14026  -0.02033   0.70459   0.00000  Uiso   1.00
C66    C     0.25705   0.16680   0.61585   0.00000  Uiso   1.00
O67    O     0.12181   0.24497   0.12743   0.00000  Uiso   1.00
O68    O     0.21863   0.21572   0.04172   0.00000  Uiso   1.00
C69    C     0.04002   0.55781   0.16844   0.00000  Uiso   1.00
C70    C     1.06709   0.55776   0.32465   0.00000  Uiso   1.00
O71    O     0.17047   0.33871   0.00389   0.00000  Uiso   1.00
C72    C     0.22114   0.53540   0.03504   0.00000  Uiso   1.00
C73    C    -0.06054   0.67293   0.49727   0.00000  Uiso   1.00
O74    O     0.19563   0.58729   0.22544   0.00000  Uiso   1.00
C75    C     0.26184   0.54752   0.34750   0.00000  Uiso   1.00
C76    C     0.38536   0.70790   0.24932   0.00000  Uiso   1.00
O77    O     0.11277   0.22395   0.83427   0.00000  Uiso   1.00
O78    O     0.20840   0.18404   0.75061   0.00000  Uiso   1.00
O79    O     0.12485   0.43687   0.91503   0.00000  Uiso   1.00
C80    C     0.10462   0.56752   0.82530   0.00000  Uiso   1.00
C81    C     0.94497   0.35990   0.86899   0.00000  Uiso   1.00
C82    C    -0.00635   0.51919   0.51547   0.00000  Uiso   1.00
C83    C     0.04930   0.34940   0.70250   0.00000  Uiso   1.00
O84    O     0.19429   0.32924   0.72803   0.00000  Uiso   1.00
C85    C     0.24449   0.52821   0.73684   0.00000  Uiso   1.00
C86    C     0.19425   0.40803   0.59356   0.00000  Uiso   1.00
C87    C     0.05473   0.84903   0.35314   0.00000  Uiso   1.00
C88    C     0.16761   0.78377   0.43842   0.00000  Uiso   1.00
C89    C     0.17278   0.97449   0.47684   0.00000  Uiso   1.00
C90    C     0.70956   0.18477   0.06396   0.00000  Uiso   1.00
O91    O     0.54640   0.11131   0.00082   0.00000  Uiso   1.00
C92    C     0.61733   0.23786   0.89279   0.00000  Uiso   1.00
C93    C     0.63417   0.03494   0.82791   0.00000  Uiso   1.00
C94    C     0.28540   0.03739   0.85132   0.00000  Uiso   1.00
O95    O     0.44225   0.16150   0.94067   0.00000  Uiso   1.00
O96    O     0.30464   0.18440   0.94425   0.00000  Uiso   1.00
C97    C     0.41737   0.11247   0.67507   0.00000  Uiso   1.00
O98    O     0.56932   0.10957   0.72529   0.00000  Uiso   1.00
C99    C     0.42423   0.24847   0.10352   0.00000  Uiso   1.00
O100   O     0.56951   0.30231   0.01476   0.00000  Uiso   1.00
O101   O     0.29760   0.40174   0.09534   0.00000  Uiso   1.00
O102   O     0.28836   0.50011   0.20807   0.00000  Uiso   1.00
O103   O     0.50815   0.42608   0.03195   0.00000  Uiso   1.00
O104   O     0.39961   0.43462   0.20023   0.00000  Uiso   1.00
C105   C     0.45330   0.34529   0.30111   0.00000  Uiso   1.00
C106   C     0.48621   0.55725   0.31067   0.00000  Uiso   1.00
O107   O     0.41840   0.24590   0.83308   0.00000  Uiso   1.00
O108   O     0.54963   0.27164   0.74882   0.00000  Uiso   1.00
O109   O     0.29993   0.36421   0.82689   0.00000  Uiso   1.00
O110   O     0.41860   0.45330   0.92818   0.00000  Uiso   1.00
O111   O     0.29110   0.48490   0.92311   0.00000  Uiso   1.00
C112   C     0.39322   0.45600   0.66800   0.00000  Uiso   1.00
O113   O     0.48833   0.39188   0.73851   0.00000  Uiso   1.00
O114   O     0.42502   0.58994   0.12224   0.00000  Uiso   1.00
O115   O     0.52431   0.60363   0.01550   0.00000  Uiso   1.00
C116   C     0.39289   1.05905   0.25935   0.00000  Uiso   1.00
C117   C     0.39798   0.93733   0.37962   0.00000  Uiso   1.00
C118   C     0.40770   1.13483   0.40486   0.00000  Uiso   1.00
C119   C     0.54216   1.04901   0.13835   0.00000  Uiso   1.00
O120   O     0.24915   0.96158   0.35906   0.00000  Uiso   1.00
O121   O     0.52580   0.77211   0.05625   0.00000  Uiso   1.00
O122   O     0.59611   0.97716   0.03322   0.00000  Uiso   1.00
C123   C     0.23966   0.65770   0.57329   0.00000  Uiso   1.00
C124   C     0.37231   0.89392   0.59543   0.00000  Uiso   1.00
C125   C     0.24112   0.75657   0.70941   0.00000  Uiso   1.00
O126   O     0.43101   0.57954   0.83681   0.00000  Uiso   1.00
O127   O     0.54180   0.59492   0.74401   0.00000  Uiso   1.00
C128   C     0.28106   0.73602   0.92727   0.00000  Uiso   1.00
O129   O     0.46083   0.83614   0.96642   0.00000  Uiso   1.00
C130   C     0.36427   0.94215   0.98925   0.00000  Uiso   1.00
C131   C     0.44058   0.93728   0.80347   0.00000  Uiso   1.00
C132   C     0.32108   0.76931   1.07583   0.00000  Uiso   1.00
O133   O     0.39275   0.75137   0.65999   0.00000  Uiso   1.00
O134   O     0.49964   0.73458   0.74639   0.00000  Uiso   1.00
O135   O     0.53832   0.92480   0.70367   0.00000  Uiso   1.00
O136   O     1.02168   0.19583   0.94231   0.00000  Uiso   1.00
C137   C     0.93527   0.07259   0.04292   0.00000  Uiso   1.00
C138   C     0.94899   0.27840   0.03842   0.00000  Uiso   1.00
C139   C     0.82782   0.09978   0.94790   0.00000  Uiso   1.00
O140   O     0.79424   0.05420   0.52640   0.00000  Uiso   1.00
C141   C     0.74884   0.93727   0.39899   0.00000  Uiso   1.00
C142   C     0.55685   0.09992   0.51443   0.00000  Uiso   1.00
O143   O     0.59225   0.23942   0.62562   0.00000  Uiso   1.00
C144   C     1.05621   0.34845   0.21044   0.00000  Uiso   1.00
C145   C     0.84231   0.19542   0.32921   0.00000  Uiso   1.00
C146   C     0.65252   0.13436   0.31192   0.00000  Uiso   1.00
O147   O     0.70092   0.08017   0.43483   0.00000  Uiso   1.00
O148   O     0.96368   0.03585   0.87056   0.00000  Uiso   1.00
C149   C     0.88581   0.87422   0.77958   0.00000  Uiso   1.00
O150   O     0.89179   0.10111   0.63128   0.00000  Uiso   1.00
C151   C     0.73829   0.21823   0.57798   0.00000  Uiso   1.00
C152   C     0.73214  -0.06201   0.68355   0.00000  Uiso   1.00
O153   O     0.88655   0.04854   0.75844   0.00000  Uiso   1.00
C154   C     0.82111   0.16801   0.72843   0.00000  Uiso   1.00
O155   O     0.60848   0.41200   0.12590   0.00000  Uiso   1.00
C156   C     0.75211   0.61612   0.15774   0.00000  Uiso   1.00
O157   O     0.56326   0.50529   0.20866   0.00000  Uiso   1.00
C158   C     1.03706   0.52885   0.97705   0.00000  Uiso   1.00
C159   C     0.90165   0.58937   0.88924   0.00000  Uiso   1.00
C160   C     0.81570   0.48629   0.03001   0.00000  Uiso   1.00
C161   C     0.85637   0.69628  -0.00658   0.00000  Uiso   1.00
O162   O     0.67371   0.31083   0.49689   0.00000  Uiso   1.00
O163   O     0.76998   0.27729   0.41804   0.00000  Uiso   1.00
O164   O     0.83736   0.46795   0.45576   0.00000  Uiso   1.00
C165   C     0.49314   0.33205   0.54473   0.00000  Uiso   1.00
C166   C     0.49332   0.49648   0.48826   0.00000  Uiso   1.00
O167   O     0.55848   0.51600   0.62885   0.00000  Uiso   1.00
C168   C     1.17747   0.75607   0.23691   0.00000  Uiso   1.00
C169   C     0.81144   0.41341   0.24832   0.00000  Uiso   1.00
O170   O     0.66849   0.44870   0.25343   0.00000  Uiso   1.00
O171   O     0.70925   0.37997   0.36546   0.00000  Uiso   1.00
C172   C     0.83473   0.58559   0.32696   0.00000  Uiso   1.00
O173   O     0.57715   0.40143   0.85296   0.00000  Uiso   1.00
O174   O     0.71364   0.50219   0.93029   0.00000  Uiso   1.00
C175   C     0.70886   0.60173   0.81032   0.00000  Uiso   1.00
O176   O     0.59287   0.54604   0.92770   0.00000  Uiso   1.00
O177   O     0.85328   0.50569   0.58855   0.00000  Uiso   1.00
C178   C     0.67250   0.53841   0.50722   0.00000  Uiso   1.00
C179   C     0.84454   0.65389   0.66819   0.00000  Uiso   1.00
C180   C     0.76470   0.43605   0.72058   0.00000  Uiso   1.00
C181   C     0.96587   0.57855   0.69759   0.00000  Uiso   1.00
O182   O     0.60085   0.70215   0.12928   0.00000  Uiso   1.00
C183   C     0.69634   0.76836   0.26213   0.00000  Uiso   1.00
C184   C     0.79100   0.85857   0.12788   0.00000  Uiso   1.00
C185   C     0.65957   0.90732   0.19198   0.00000  Uiso   1.00
C186   C     0.46370   0.71027   0.49588   0.00000  Uiso   1.00
C187   C     0.65305   0.75651   0.53274   0.00000  Uiso   1.00
O188   O     0.62179   0.90987   0.50670   0.00000  Uiso   1.00
O189   O     0.55095   0.79468   0.62007   0.00000  Uiso   1.00
O190   O     0.60916   0.74315   0.83990   0.00000  Uiso   1.00
C191   C     0.72270   0.77813   0.95210   0.00000  Uiso   1.00
O192   O     0.77244   0.91793   0.85998   0.00000  Uiso   1.00
O193   O     0.62380   0.87390   0.93616   0.00000  Uiso   1.00
H194   H     0.25916  -0.04217   0.12455   0.00000  Uiso   1.00
H195   H     0.19324  -0.04716   0.19526   0.00000  Uiso   1.00
H196   H     0.25939   0.07323   0.14731   0.00000  Uiso   1.00
H197   H     0.03750   0.99830   0.13914   0.00000  Uiso   1.00
H198   H    -0.00941   0.85559   0.13948   0.00000  Uiso   1.00
H199   H    -0.01802   0.91819   0.06753   0.00000  Uiso   1.00
H200   H     0.07855   0.82068  -0.00761   0.00000  Uiso   1.00
H201   H     0.05210   0.75738   0.07384   0.00000  Uiso   1.00
H202   H     0.15804   0.80902   0.04139   0.00000  Uiso   1.00
H203   H     0.95295   0.12529   0.27172   0.00000  Uiso   1.00
H204   H     0.96466   0.05961   0.19088   0.00000  Uiso   1.00
H205   H     0.91352   0.12977   0.18978   0.00000  Uiso   1.00
H206   H    -0.04451   0.25801   0.46477   0.00000  Uiso   1.00
H207   H     0.04206   0.27464   0.51569   0.00000  Uiso   1.00
H208   H    -0.04247   0.28903   0.55340   0.00000  Uiso   1.00
H209   H     0.09289   0.08894   0.40842   0.00000  Uiso   1.00
H210   H     0.02372   0.04926   0.33375   0.00000  Uiso   1.00
H211   H     0.03802   0.14750   0.38758   0.00000  Uiso   1.00
H212   H     0.29828   0.38169   0.36665   0.00000  Uiso   1.00
H213   H     0.25831   0.27731   0.42321   0.00000  Uiso   1.00
H214   H     0.19091   0.33677   0.40095   0.00000  Uiso   1.00
H215   H     0.28653   0.21483   0.23873   0.00000  Uiso   1.00
H216   H     0.18646   0.08940   0.24115   0.00000  Uiso   1.00
H217   H     0.26730   0.13481   0.31593   0.00000  Uiso   1.00
H218   H    -0.07353   0.02808   0.45566   0.00000  Uiso   1.00
H219   H    -0.09241  -0.03796   0.53775   0.00000  Uiso   1.00
H220   H     0.01352   0.07596   0.51318   0.00000  Uiso   1.00
H221   H     0.01306   0.05849   0.71038   0.00000  Uiso   1.00
H222   H     0.02082   0.02633   0.62481   0.00000  Uiso   1.00
H223   H     0.06253   0.15907   0.65399   0.00000  Uiso   1.00
H224   H     0.11500  -0.06472   0.65294   0.00000  Uiso   1.00
H225   H     0.09183  -0.06031   0.74188   0.00000  Uiso   1.00
H226   H     0.20150  -0.01578   0.71780   0.00000  Uiso   1.00
H227   H     0.26027   0.10772   0.59360   0.00000  Uiso   1.00
H228   H     0.31489   0.22273   0.64315   0.00000  Uiso   1.00
H229   H     0.23189   0.19247   0.57271   0.00000  Uiso   1.00
H230   H    -0.01441   0.47354   0.18510   0.00000  Uiso   1.00
H231   H     0.08630   0.55667   0.13077   0.00000  Uiso   1.00
H232   H     0.01112   0.60562   0.15686   0.00000  Uiso   1.00
H233   H     1.02209   0.46640   0.31998   0.00000  Uiso   1.00
H234   H     1.01742   0.57950   0.33265   0.00000  Uiso   1.00
H235   H     1.11877   0.58115   0.36865   0.00000  Uiso   1.00
H236   H     0.20408   0.58769   0.02144   0.00000  Uiso   1.00
H237   H     0.29437   0.58758   0.04396   0.00000  Uiso   1.00
H238   H     0.17843   0.50343   0.08390   0.00000  Uiso   1.00
H239   H    -0.00950   0.72230   0.53692   0.00000  Uiso   1.00
H240   H    -0.11950   0.67668   0.50099   0.00000  Uiso   1.00
H241   H    -0.03113   0.70172   0.44721   0.00000  Uiso   1.00
H242   H     0.25848   0.60661   0.37933   0.00000  Uiso   1.00
H243   H     0.30995   0.53183   0.36420   0.00000  Uiso   1.00
H244   H     0.19521   0.47698   0.35851   0.00000  Uiso   1.00
H245   H     0.42720   0.71132   0.28996   0.00000  Uiso   1.00
H246   H     0.37535   0.76905   0.26530   0.00000  Uiso   1.00
H247   H     0.41789   0.72804   0.19687   0.00000  Uiso   1.00
H248   H     0.08510   0.53603   0.77238   0.00000  Uiso   1.00
H249   H     0.17493   0.61488   0.83244   0.00000  Uiso   1.00
H250   H     0.07561   0.61515   0.83237   0.00000  Uiso   1.00
H251   H     0.94600   0.29688   0.88342   0.00000  Uiso   1.00
H252   H     0.93424   0.35841   0.81305   0.00000  Uiso   1.00
H253   H     0.89094   0.36125   0.89190   0.00000  Uiso   1.00
H254   H     0.04509   0.56606   0.55464   0.00000  Uiso   1.00
H255   H     0.02338   0.54226   0.46169   0.00000  Uiso   1.00
H256   H    -0.03468   0.43559   0.52415   0.00000  Uiso   1.00
H257   H     0.02921   0.33486   0.75942   0.00000  Uiso   1.00
H258   H     0.01245   0.27959   0.67191   0.00000  Uiso   1.00
H259   H     0.03844   0.40661   0.67818   0.00000  Uiso   1.00
H260   H     0.22193   0.58046   0.72884   0.00000  Uiso   1.00
H261   H     0.31456   0.56967   0.71710   0.00000  Uiso   1.00
H262   H     0.24714   0.51848   0.79285   0.00000  Uiso   1.00
H263   H     0.16065   0.43806   0.56476   0.00000  Uiso   1.00
H264   H     0.18497   0.33568   0.57136   0.00000  Uiso   1.00
H265   H     0.26369   0.46929   0.57872   0.00000  Uiso   1.00
H266   H     0.01525   0.87947   0.37715   0.00000  Uiso   1.00
H267   H     0.01631   0.76476   0.34731   0.00000  Uiso   1.00
H268   H     0.07854   0.88379   0.29977   0.00000  Uiso   1.00
H269   H     0.20235   0.76503   0.39717   0.00000  Uiso   1.00
H270   H     0.10216   0.71027   0.44424   0.00000  Uiso   1.00
H271   H     0.20021   0.80353   0.48825   0.00000  Uiso   1.00
H272   H     0.11161   0.94474   0.51289   0.00000  Uiso   1.00
H273   H     0.19808   1.05444   0.45681   0.00000  Uiso   1.00
H274   H     0.22845   0.98700   0.50654   0.00000  Uiso   1.00
H275   H     0.74481   0.21334   0.01478   0.00000  Uiso   1.00
H276   H     0.74837   0.16811   0.10060   0.00000  Uiso   1.00
H277   H     0.70302   0.24613   0.08751   0.00000  Uiso   1.00
H278   H     0.58593   0.18156   0.85043   0.00000  Uiso   1.00
H279   H     0.67692   0.24105   0.91210   0.00000  Uiso   1.00
H280   H     0.64476   0.31610   0.87442   0.00000  Uiso   1.00
H281   H     0.68970   0.12008   0.83624   0.00000  Uiso   1.00
H282   H     0.67164   0.00281   0.81240   0.00000  Uiso   1.00
H283   H     0.59691  -0.00335   0.87594   0.00000  Uiso   1.00
H284   H     0.32711   0.02546   0.81530   0.00000  Uiso   1.00
H285   H     0.23667   0.04403   0.82646   0.00000  Uiso   1.00
H286   H     0.25820  -0.02389   0.89115   0.00000  Uiso   1.00
H287   H     0.38691   0.03673   0.70017   0.00000  Uiso   1.00
H288   H     0.40647   0.10020   0.61763   0.00000  Uiso   1.00
H289   H     0.38841   0.15596   0.70026   0.00000  Uiso   1.00
H290   H     0.38454   0.21497   0.05925   0.00000  Uiso   1.00
H291   H     0.39638   0.28978   0.13097   0.00000  Uiso   1.00
H292   H     0.42842   0.19185   0.13725   0.00000  Uiso   1.00
H293   H     0.38741   0.31189   0.33346   0.00000  Uiso   1.00
H294   H     0.50109   0.36363   0.34111   0.00000  Uiso   1.00
H295   H     0.44926   0.28369   0.27067   0.00000  Uiso   1.00
H296   H     0.49720   0.62398   0.27689   0.00000  Uiso   1.00
H297   H     0.54908   0.59468   0.33936   0.00000  Uiso   1.00
H298   H     0.42767   0.53072   0.34748   0.00000  Uiso   1.00
H299   H     0.39354   0.50805   0.63280   0.00000  Uiso   1.00
H300   H     0.35036   0.44639   0.70959   0.00000  Uiso   1.00
H301   H     0.35768   0.38501   0.63962   0.00000  Uiso   1.00
H302   H     0.46733   1.11833   0.25576   0.00000  Uiso   1.00
H303   H     0.35160   1.08949   0.23763   0.00000  Uiso   1.00
H304   H     0.37990   0.98909   0.22930   0.00000  Uiso   1.00
H305   H     0.47260   0.97639   0.37580   0.00000  Uiso   1.00
H306   H     0.37029   0.87224   0.34176   0.00000  Uiso   1.00
H307   H     0.37681   0.91348   0.43554   0.00000  Uiso   1.00
H308   H     0.38672   1.18726   0.38164   0.00000  Uiso   1.00
H309   H     0.48195   1.17974   0.39792   0.00000  Uiso   1.00
H310   H     0.39283   1.13103   0.45982   0.00000  Uiso   1.00
H311   H     0.56217   1.01594   0.18099   0.00000  Uiso   1.00
H312   H     0.46879   0.99280   0.12438   0.00000  Uiso   1.00
H313   H     0.54905   1.12106   0.15972   0.00000  Uiso   1.00
H314   H     0.17327   0.58798   0.59574   0.00000  Uiso   1.00
H315   H     0.28184   0.63621   0.54625   0.00000  Uiso   1.00
H316   H     0.21968   0.68908   0.53006   0.00000  Uiso   1.00
H317   H     0.41342   0.93934   0.63466   0.00000  Uiso   1.00
H318   H     0.32681   0.91540   0.58047   0.00000  Uiso   1.00
H319   H     0.40920   0.90033   0.54699   0.00000  Uiso   1.00
H320   H     0.23518   0.82458   0.71349   0.00000  Uiso   1.00
H321   H     0.26065   0.74407   0.76283   0.00000  Uiso   1.00
H322   H     0.17328   0.68443   0.70085   0.00000  Uiso   1.00
H323   H     0.21619   0.70737   0.95059   0.00000  Uiso   1.00
H324   H     0.29355   0.67949   0.90670   0.00000  Uiso   1.00
H325   H     0.29064   0.78044   0.87810   0.00000  Uiso   1.00
H326   H     0.29421   0.91890   0.97749   0.00000  Uiso   1.00
H327   H     0.40720   0.98908   0.94489   0.00000  Uiso   1.00
H328   H     0.37586   0.97263   1.04265   0.00000  Uiso   1.00
H329   H     0.42873   0.86847   0.82668   0.00000  Uiso   1.00
H330   H     0.38982   0.92487   0.76745   0.00000  Uiso   1.00
H331   H     0.43773   0.98781   0.83952   0.00000  Uiso   1.00
H332   H     0.35329   0.73198   1.09904   0.00000  Uiso   1.00
H333   H     0.24666   0.72122   1.08238   0.00000  Uiso   1.00
H334   H     0.34098   0.83181   1.11030   0.00000  Uiso   1.00
H335   H     0.99874   0.11101   0.06799   0.00000  Uiso   1.00
H336   H     0.91404   0.00338   0.01146   0.00000  Uiso   1.00
H337   H     0.88166   0.05302   0.08072   0.00000  Uiso   1.00
H338   H     0.91345   0.24741   0.08721   0.00000  Uiso   1.00
H339   H     0.90462   0.30367   0.02006   0.00000  Uiso   1.00
H340   H     1.01665   0.34929   0.04651   0.00000  Uiso   1.00
H341   H     0.77610   0.02727   0.97433   0.00000  Uiso   1.00
H342   H     0.83569   0.09638   0.88879   0.00000  Uiso   1.00
H343   H     0.79790   0.14492   0.94785   0.00000  Uiso   1.00
H344   H     0.75521   0.87507   0.42208   0.00000  Uiso   1.00
H345   H     0.81179   1.00364   0.36984   0.00000  Uiso   1.00
H346   H     0.69671   0.90547   0.35802   0.00000  Uiso   1.00
H347   H     0.48423   0.07768   0.51296   0.00000  Uiso   1.00
H348   H     0.56509   0.04111   0.53872   0.00000  Uiso   1.00
H349   H     0.57801   0.11479   0.45858   0.00000  Uiso   1.00
H350   H     1.08213   0.40291   0.25624   0.00000  Uiso   1.00
H351   H     0.98322   0.30972   0.21282   0.00000  Uiso   1.00
H352   H     1.08631   0.39929   0.16465   0.00000  Uiso   1.00
H353   H     0.87130   0.26931   0.30152   0.00000  Uiso   1.00
H354   H     0.81567   0.12588   0.29381   0.00000  Uiso   1.00
H355   H     0.90048   0.20353   0.35816   0.00000  Uiso   1.00
H356   H     0.59490   0.13597   0.33288   0.00000  Uiso   1.00
H357   H     0.63419   0.05541   0.29589   0.00000  Uiso   1.00
H358   H     0.68290   0.19022   0.26467   0.00000  Uiso   1.00
H359   H     0.84632   0.80808   0.81476   0.00000  Uiso   1.00
H360   H     0.95310   0.88713   0.77339   0.00000  Uiso   1.00
H361   H     0.85420   0.86466   0.72912   0.00000  Uiso   1.00
H362   H     0.76107   0.20158   0.53103   0.00000  Uiso   1.00
H363   H     0.71413   0.15425   0.61776   0.00000  Uiso   1.00
H364   H     0.79554   0.29337   0.60207   0.00000  Uiso   1.00
H365   H     0.68916  -0.09602   0.73095   0.00000  Uiso   1.00
H366   H     0.75032  -0.11396   0.65939   0.00000  Uiso   1.00
H367   H     0.69961  -0.04221   0.64433   0.00000  Uiso   1.00
H368   H     0.83290   0.18393   0.78577   0.00000  Uiso   1.00
H369   H     0.75068   0.13195   0.71770   0.00000  Uiso   1.00
H370   H     0.86609   0.23862   0.70335   0.00000  Uiso   1.00
H371   H     0.80007   0.59944   0.13692   0.00000  Uiso   1.00
H372   H     0.78543   0.67181   0.20052   0.00000  Uiso   1.00
H373   H     0.73796   0.65000   0.11359   0.00000  Uiso   1.00
H374   H     1.06574   0.61086   0.97129   0.00000  Uiso   1.00
H375   H     1.05761   0.51578   1.02657   0.00000  Uiso   1.00
H376   H     0.96216   0.48543   0.98221   0.00000  Uiso   1.00
H377   H     0.88215   0.60762   0.84191   0.00000  Uiso   1.00
H378   H     0.90014   0.51563   0.88045   0.00000  Uiso   1.00
H379   H     0.97104   0.64937   0.90362   0.00000  Uiso   1.00
H380   H     0.75469   0.45608   0.06730   0.00000  Uiso   1.00
H381   H     0.88020   0.52828   0.05522   0.00000  Uiso   1.00
H382   H     0.80905   0.42067   0.00412   0.00000  Uiso   1.00
H383   H     0.80810   0.70598   0.01727   0.00000  Uiso   1.00
H384   H     0.88552   0.74664  -0.04772   0.00000  Uiso   1.00
H385   H     0.90637   0.72442   0.03458   0.00000  Uiso   1.00
H386   H     0.51742   0.30837   0.49878   0.00000  Uiso   1.00
H387   H     0.42164   0.29937   0.53365   0.00000  Uiso   1.00
H388   H     0.49460   0.30373   0.59622   0.00000  Uiso   1.00
H389   H     0.41724   0.44950   0.49971   0.00000  Uiso   1.00
H390   H     0.50640   0.48136   0.43381   0.00000  Uiso   1.00
H391   H     0.51412   0.57607   0.48917   0.00000  Uiso   1.00
H392   H     1.12599   0.77018   0.26013   0.00000  Uiso   1.00
H393   H     1.21150   0.80190   0.18966   0.00000  Uiso   1.00
H394   H     1.23494   0.79665   0.27501   0.00000  Uiso   1.00
H395   H     0.76840   0.34302   0.22016   0.00000  Uiso   1.00
H396   H     0.86397   0.41064   0.27900   0.00000  Uiso   1.00
H397   H     0.85314   0.47708   0.21285   0.00000  Uiso   1.00
H398   H     0.89315   0.58341   0.34056   0.00000  Uiso   1.00
H399   H     0.81127   0.61353   0.37024   0.00000  Uiso   1.00
H400   H     0.85251   0.64304   0.28811   0.00000  Uiso   1.00
H401   H     0.69043   0.55424   0.76234   0.00000  Uiso   1.00
H402   H     0.77966   0.63580   0.82020   0.00000  Uiso   1.00
H403   H     0.70117   0.66493   0.81132   0.00000  Uiso   1.00
H404   H     0.71220   0.62206   0.50931   0.00000  Uiso   1.00
H405   H     0.66579   0.51156   0.45379   0.00000  Uiso   1.00
H406   H     0.71169   0.51769   0.53892   0.00000  Uiso   1.00
H407   H     0.86659   0.69218   0.72096   0.00000  Uiso   1.00
H408   H     0.77667   0.63025   0.64997   0.00000  Uiso   1.00
H409   H     0.89660   0.70965   0.62930   0.00000  Uiso   1.00
H410   H     0.77708   0.45840   0.77806   0.00000  Uiso   1.00
H411   H     0.75836   0.36253   0.71176   0.00000  Uiso   1.00
H412   H     0.70020   0.42375   0.70457   0.00000  Uiso   1.00
H413   H     0.97095   0.51087   0.69741   0.00000  Uiso   1.00
H414   H     0.97556   0.60647   0.75090   0.00000  Uiso   1.00
H415   H     1.01466   0.62600   0.65622   0.00000  Uiso   1.00
H416   H     0.76896   0.81997   0.27480   0.00000  Uiso   1.00
H417   H     0.67902   0.68987   0.25805   0.00000  Uiso   1.00
H418   H     0.65018   0.75987   0.30275   0.00000  Uiso   1.00
H419   H     0.83683   0.91370   0.16753   0.00000  Uiso   1.00
H420   H     0.79106   0.89036   0.07701   0.00000  Uiso   1.00
H421   H     0.81154   0.80412   0.11528   0.00000  Uiso   1.00
H422   H     0.69947   0.96073   0.23702   0.00000  Uiso   1.00
H423   H     0.58615   0.86728   0.20547   0.00000  Uiso   1.00
H424   H     0.67734   0.96198   0.14663   0.00000  Uiso   1.00
H425   H     0.43017   0.63703   0.52545   0.00000  Uiso   1.00
H426   H     0.46708   0.69179   0.43903   0.00000  Uiso   1.00
H427   H     0.41966   0.73807   0.49900   0.00000  Uiso   1.00
H428   H     0.63472   0.69124   0.56732   0.00000  Uiso   1.00
H429   H     0.72298   0.81979   0.54967   0.00000  Uiso   1.00
H430   H     0.65268   0.73482   0.47893   0.00000  Uiso   1.00
H431   H     0.73678   0.72951   0.92011   0.00000  Uiso   1.00
H432   H     0.68334   0.73808   1.00045   0.00000  Uiso   1.00
H433   H     0.78852   0.84493   0.96848   0.00000  Uiso   1.00
loop_
_geom_bond_atom_site_label_1
_geom_bond_atom_site_label_2
_geom_bond_distance
_geom_bond_site_symmetry_2
_ccdc_geom_bond_type
Si1    C52     1.849   .     S
Si1    O56     1.580   .     S
Si1    C53     1.896   1_545 S
Si1    C54     1.856   1_545 S
Si2    O58     1.625   .     S
Si2    O67     1.610   .     S
Si2    C55     1.859   1_455 S
Si2    C144    1.905   1_455 S
Si3    O56     1.555   .     S
Si3    O68     1.577   .     S
Si3    O62     1.622   1_554 S
Si3    O96     1.619   1_554 S
Si4    C57     1.830   .     S
Si4    C63     1.816   .     S
Si4    O140    1.602   1_455 S
Si4    O150    1.585   1_455 S
Si5    O58     1.557   .     S
Si5    C59     1.849   .     S
Si5    C60     1.865   .     S
Si5    C61     1.853   .     S
Si6    O62     1.627   .     S
Si6    O77     1.581   .     S
Si6    O136    1.537   1_455 S
Si6    O148    1.696   1_455 S
Si7    C64     1.866   .     S
Si7    C65     1.840   .     S
Si7    C66     1.853   .     S
Si7    O78     1.574   .     S
Si8    O67     1.637   .     S
Si8    O68     1.584   .     S
Si8    O71     1.592   .     S
Si8    O101    1.664   .     S
Si9    C69     1.897   .     S
Si9    O74     1.568   .     S
Si9    C70     1.831   1_455 S
Si9    C168    1.859   1_455 S
Si10   O71     1.613   .     S
Si10   C72     1.861   .     S
Si10   O79     1.584   1_554 S
Si10   O111    1.587   1_554 S
Si11   C73     1.837   .     S
Si11   C82     1.821   .     S
Si11   O164    1.547   1_455 S
Si11   O177    1.600   1_455 S
Si12   O74     1.629   .     S
Si12   C75     1.858   .     S
Si12   C76     1.810   .     S
Si12   O102    1.642   .     S
Si13   O77     1.607   .     S
Si13   O78     1.635   .     S
Si13   O84     1.523   .     S
Si13   O109    1.652   .     S
Si14   O79     1.630   .     S
Si14   C80     1.894   .     S
Si14   C81     1.834   1_455 S
Si14   C158    1.877   1_455 S
Si15   C83     1.861   .     S
Si15   O84     1.596   .     S
Si15   C85     1.848   .     S
Si15   C86     1.915   .     S
Si16   C87     1.884   .     S
Si16   C88     1.862   .     S
Si16   C89     1.834   .     S
Si16   O120    1.613   .     S
Si17   C90     1.865   .     S
Si17   O91     1.617   .     S
Si17   C119    1.769   1_545 S
Si17   O122    1.583   1_545 S
Si18   O91     1.610   .     S
Si18   O100    1.657   .     S
Si18   C92     1.812   1_554 S
Si18   O95     1.569   1_554 S
Si19   C93     1.896   .     S
Si19   O98     1.603   .     S
Si19   C131    1.794   1_545 S
Si19   O135    1.566   1_545 S
Si20   C94     1.835   .     S
Si20   O95     1.608   .     S
Si20   O96     1.653   .     S
Si20   O107    1.634   .     S
Si21   C97     1.845   .     S
Si21   O98     1.666   .     S
Si21   O108    1.625   .     S
Si21   O143    1.563   .     S
Si22   C99     1.855   .     S
Si22   O100    1.588   .     S
Si22   O103    1.621   .     S
Si22   O155    1.587   .     S
Si23   O101    1.638   .     S
Si23   O102    1.617   .     S
Si23   O104    1.618   .     S
Si23   O114    1.589   .     S
Si24   O103    1.635   .     S
Si24   O115    1.564   .     S
Si24   O110    1.628   1_554 S
Si24   O176    1.595   1_554 S
Si25   O104    1.576   .     S
Si25   C105    1.826   .     S
Si25   C106    1.795   .     S
Si25   O157    1.577   .     S
Si26   O107    1.605   .     S
Si26   O108    1.653   .     S
Si26   O113    1.585   .     S
Si26   O173    1.629   .     S
Si27   O109    1.655   .     S
Si27   O110    1.580   .     S
Si27   O111    1.618   .     S
Si27   O126    1.670   .     S
Si28   C112    1.807   .     S
Si28   O113    1.576   .     S
Si28   O127    1.658   .     S
Si28   O167    1.585   .     S
Si29   O114    1.616   .     S
Si29   O115    1.608   .     S
Si29   O121    1.634   .     S
Si29   O182    1.597   .     S
Si30   C116    1.860   .     S
Si30   C117    1.900   .     S
Si30   C118    1.807   .     S
Si30   O120    1.600   .     S
Si31   O121    1.670   .     S
Si31   O122    1.643   .     S
Si31   O129    1.604   1_554 S
Si31   O193    1.625   1_554 S
Si32   C123    1.861   .     S
Si32   C124    1.872   .     S
Si32   C125    1.856   .     S
Si32   O133    1.609   .     S
Si33   O126    1.648   .     S
Si33   O127    1.622   .     S
Si33   O134    1.605   .     S
Si33   O190    1.629   .     S
Si34   C128    1.850   .     S
Si34   O129    1.629   .     S
Si34   C130    1.847   .     S
Si34   C132    1.835   .     S
Si35   O133    1.637   .     S
Si35   O134    1.649   .     S
Si35   O135    1.640   .     S
Si35   O189    1.589   .     S
Si36   C137    1.816   .     S
Si36   C138    1.859   .     S
Si36   O136    1.583   1_554 S
Si36   C139    1.805   1_554 S
Si37   O140    1.614   .     S
Si37   O147    1.592   .     S
Si37   C141    1.908   1_545 S
Si37   O188    1.624   1_545 S
Si38   C142    1.812   .     S
Si38   O143    1.626   .     S
Si38   C151    1.923   .     S
Si38   O162    1.618   .     S
Si39   C145    1.873   .     S
Si39   C146    1.871   .     S
Si39   O147    1.615   .     S
Si39   O163    1.605   .     S
Si40   O148    1.665   .     S
Si40   O153    1.603   .     S
Si40   C149    1.783   1_545 S
Si40   O192    1.718   1_545 S
Si41   O150    1.562   .     S
Si41   C152    1.820   .     S
Si41   O153    1.596   .     S
Si41   C154    1.818   .     S
Si42   O155    1.592   .     S
Si42   C156    1.910   .     S
Si42   O157    1.587   .     S
Si42   O170    1.618   .     S
Si43   C160    1.814   .     S
Si43   C161    1.894   .     S
Si43   C159    1.882   1_554 S
Si43   O174    1.634   1_554 S
Si44   O162    1.602   .     S
Si44   O163    1.544   .     S
Si44   O164    1.662   .     S
Si44   O171    1.600   .     S
Si45   C165    1.883   .     S
Si45   C166    1.816   .     S
Si45   O167    1.611   .     S
Si45   C178    1.897   .     S
Si46   C169    1.831   .     S
Si46   O170    1.610   .     S
Si46   O171    1.574   .     S
Si46   C172    1.906   .     S
Si47   O173    1.579   .     S
Si47   O174    1.546   .     S
Si47   C175    1.844   .     S
Si47   O176    1.606   .     S
Si48   O177    1.579   .     S
Si48   C179    1.872   .     S
Si48   C180    1.853   .     S
Si48   C181    1.824   .     S
Si49   O182    1.601   .     S
Si49   C183    1.885   .     S
Si49   C184    1.896   .     S
Si49   C185    1.900   .     S
Si50   C186    1.856   .     S
Si50   C187    1.876   .     S
Si50   O188    1.564   .     S
Si50   O189    1.599   .     S
Si51   O190    1.638   .     S
Si51   C191    1.847   .     S
Si51   O192    1.586   .     S
Si51   O193    1.617   .     S
C52    H194    1.102   .     S
C52    H195    1.068   .     S
C52    H196    1.131   .     S
C53    H197    1.126   .     S
C53    H198    1.097   .     S
C53    H199    1.112   .     S
C53    Si1     1.896   1_565 S
C54    H200    1.062   .     S
C54    H201    1.143   .     S
C54    H202    1.072   .     S
C54    Si1     1.856   1_565 S
C55    H203    1.129   .     S
C55    H204    1.075   .     S
C55    H205    1.120   .     S
C55    Si2     1.859   1_655 S
C57    H206    1.101   .     S
C57    H207    1.125   .     S
C57    H208    1.103   .     S
C59    H209    1.115   .     S
C59    H210    1.069   .     S
C59    H211    1.065   .     S
C60    H212    1.048   .     S
C60    H213    1.096   .     S
C60    H214    1.124   .     S
C61    H215    1.099   .     S
C61    H216    1.126   .     S
C61    H217    1.145   .     S
O62    Si3     1.622   1_556 S
C63    H218    1.086   .     S
C63    H219    1.064   .     S
C63    H220    1.124   .     S
C64    H221    1.090   .     S
C64    H222    1.096   .     S
C64    H223    1.113   .     S
C65    H224    1.153   .     S
C65    H225    1.020   .     S
C65    H226    1.086   .     S
C66    H227    1.037   .     S
C66    H228    1.055   .     S
C66    H229    1.128   .     S
C69    H230    1.163   .     S
C69    H231    1.093   .     S
C69    H232    1.137   .     S
C70    H233    1.187   .     S
C70    H234    1.112   .     S
C70    H235    1.163   .     S
C70    Si9     1.831   1_655 S
C72    H236    1.049   .     S
C72    H237    1.105   .     S
C72    H238    1.131   .     S
C73    H239    1.115   .     S
C73    H240    1.081   .     S
C73    H241    1.068   .     S
C75    H242    1.126   .     S
C75    H243    1.066   .     S
C75    H244    1.101   .     S
C76    H245    1.073   .     S
C76    H246    1.097   .     S
C76    H247    1.115   .     S
O79    Si10    1.584   1_556 S
C80    H248    1.104   .     S
C80    H249    1.054   .     S
C80    H250    1.116   .     S
C81    H251    1.031   .     S
C81    H252    1.099   .     S
C81    H253    1.059   .     S
C81    Si14    1.834   1_655 S
C82    H254    1.103   .     S
C82    H255    1.124   .     S
C82    H256    1.117   .     S
C83    H257    1.135   .     S
C83    H258    1.081   .     S
C83    H259    1.118   .     S
C85    H260    1.099   .     S
C85    H261    1.101   .     S
C85    H262    1.100   .     S
C86    H263    1.100   .     S
C86    H264    1.122   .     S
C86    H265    1.098   .     S
C87    H266    1.130   .     S
C87    H267    1.098   .     S
C87    H268    1.130   .     S
C88    H269    1.127   .     S
C88    H270    1.096   .     S
C88    H271    1.084   .     S
C89    H272    1.141   .     S
C89    H273    1.133   .     S
C89    H274    1.074   .     S
C90    H275    1.082   .     S
C90    H276    1.124   .     S
C90    H277    1.112   .     S
C92    H278    1.098   .     S
C92    H279    1.104   .     S
C92    H280    1.091   .     S
C92    Si18    1.812   1_556 S
C93    H281    1.144   .     S
C93    H282    1.065   .     S
C93    H283    1.099   .     S
C94    H284    1.092   .     S
C94    H285    1.052   .     S
C94    H286    1.108   .     S
O95    Si18    1.569   1_556 S
O96    Si3     1.619   1_556 S
C97    H287    1.101   .     S
C97    H288    1.125   .     S
C97    H289    1.149   .     S
C99    H290    1.052   .     S
C99    H291    1.126   .     S
C99    H292    1.137   .     S
C105   H293    1.156   .     S
C105   H294    1.074   .     S
C105   H295    1.085   .     S
C106   H296    1.152   .     S
C106   H297    1.092   .     S
C106   H298    1.123   .     S
O110   Si24    1.628   1_556 S
O111   Si10    1.587   1_556 S
C112   H299    1.061   .     S
C112   H300    1.048   .     S
C112   H301    1.070   .     S
C116   H302    1.120   .     S
C116   H303    1.156   .     S
C116   H304    1.132   .     S
C117   H305    1.114   .     S
C117   H306    1.116   .     S
C117   H307    1.133   .     S
C118   H308    1.164   .     S
C118   H309    1.106   .     S
C118   H310    1.083   .     S
C119   H311    1.137   .     S
C119   H312    1.134   .     S
C119   H313    1.129   .     S
C119   Si17    1.769   1_565 S
O122   Si17    1.583   1_565 S
C123   H314    1.155   .     S
C123   H315    1.095   .     S
C123   H316    1.129   .     S
C124   H317    1.022   .     S
C124   H318    1.076   .     S
C124   H319    1.104   .     S
C125   H320    1.119   .     S
C125   H321    1.148   .     S
C125   H322    1.117   .     S
C128   H323    1.071   .     S
C128   H324    1.086   .     S
C128   H325    1.135   .     S
O129   Si31    1.604   1_556 S
C130   H326    1.115   .     S
C130   H327    1.106   .     S
C130   H328    1.104   .     S
C131   H329    1.071   .     S
C131   H330    1.079   .     S
C131   H331    1.063   .     S
C131   Si19    1.794   1_565 S
C132   H332    1.117   .     S
C132   H333    1.108   .     S
C132   H334    1.060   .     S
O135   Si19    1.566   1_565 S
O136   Si6     1.537   1_655 S
O136   Si36    1.583   1_556 S
C137   H335    1.065   .     S
C137   H336    1.100   .     S
C137   H337    1.091   .     S
C138   H338    1.082   .     S
C138   H339    1.121   .     S
C138   H340    1.107   .     S
C139   H341    1.108   .     S
C139   H342    1.151   .     S
C139   H343    1.088   .     S
C139   Si36    1.805   1_556 S
O140   Si4     1.602   1_655 S
C141   H344    1.131   .     S
C141   H345    1.161   .     S
C141   H346    1.115   .     S
C141   Si37    1.908   1_565 S
C142   H347    1.137   .     S
C142   H348    1.112   .     S
C142   H349    1.119   .     S
C144   H350    1.130   .     S
C144   H351    1.087   .     S
C144   H352    1.107   .     S
C144   Si2     1.905   1_655 S
C145   H353    1.105   .     S
C145   H354    1.135   .     S
C145   H355    1.129   .     S
C146   H356    1.105   .     S
C146   H357    1.122   .     S
C146   H358    1.166   .     S
O148   Si6     1.696   1_655 S
C149   H359    1.101   .     S
C149   H360    1.101   .     S
C149   H361    1.102   .     S
C149   Si40    1.783   1_565 S
O150   Si4     1.585   1_655 S
C151   H362    1.070   .     S
C151   H363    1.139   .     S
C151   H364    1.144   .     S
C152   H365    1.113   .     S
C152   H366    1.115   .     S
C152   H367    1.106   .     S
C154   H368    1.130   .     S
C154   H369    1.075   .     S
C154   H370    1.052   .     S
C156   H371    1.086   .     S
C156   H372    1.103   .     S
C156   H373    1.111   .     S
C158   H374    1.086   .     S
C158   H375    1.091   .     S
C158   H376    1.114   .     S
C158   Si14    1.877   1_655 S
C159   H377    1.079   .     S
C159   H378    1.141   .     S
C159   H379    1.098   .     S
C159   Si43    1.882   1_556 S
C160   H380    1.153   .     S
C160   H381    1.080   .     S
C160   H382    1.076   .     S
C161   H383    1.046   .     S
C161   H384    1.031   .     S
C161   H385    1.097   .     S
O164   Si11    1.547   1_655 S
C165   H386    1.122   .     S
C165   H387    1.102   .     S
C165   H388    1.099   .     S
C166   H389    1.145   .     S
C166   H390    1.122   .     S
C166   H391    1.077   .     S
C168   H392    1.134   .     S
C168   H393    1.107   .     S
C168   H394    1.136   .     S
C168   Si9     1.859   1_655 S
C169   H395    1.074   .     S
C169   H396    1.136   .     S
C169   H397    1.088   .     S
C172   H398    1.094   .     S
C172   H399    1.111   .     S
C172   H400    1.075   .     S
O174   Si43    1.634   1_556 S
C175   H401    1.112   .     S
C175   H402    1.082   .     S
C175   H403    1.063   .     S
O176   Si24    1.595   1_556 S
O177   Si11    1.600   1_655 S
C178   H404    1.084   .     S
C178   H405    1.091   .     S
C178   H406    1.110   .     S
C179   H407    1.135   .     S
C179   H408    1.112   .     S
C179   H409    1.129   .     S
C180   H410    1.147   .     S
C180   H411    1.095   .     S
C180   H412    1.103   .     S
C181   H413    1.103   .     S
C181   H414    1.091   .     S
C181   H415    1.102   .     S
C183   H416    1.111   .     S
C183   H417    1.082   .     S
C183   H418    1.078   .     S
C184   H419    1.105   .     S
C184   H420    1.105   .     S
C184   H421    1.113   .     S
C185   H422    1.142   .     S
C185   H423    1.118   .     S
C185   H424    1.140   .     S
C186   H425    1.109   .     S
C186   H426    1.140   .     S
C186   H427    1.082   .     S
C187   H428    1.106   .     S
C187   H429    1.130   .     S
C187   H430    1.087   .     S
O188   Si37    1.624   1_565 S
C191   H431    1.097   .     S
C191   H432    1.121   .     S
C191   H433    1.101   .     S
O192   Si40    1.718   1_565 S
O193   Si31    1.625   1_556 S
