data_333-13-11-12-15-30-18
_audit_creation_date              2025-03-07
_audit_creation_method            'Materials Studio'
_symmetry_space_group_name_H-M    'P1'
_symmetry_Int_Tables_number       1
_symmetry_cell_setting            triclinic
loop_
_symmetry_equiv_pos_as_xyz
  x,y,z
_cell_length_a                    15.8093
_cell_length_b                    16.1703
_cell_length_c                    19.9884
_cell_angle_alpha                 91.2635
_cell_angle_beta                  90.3956
_cell_angle_gamma                 116.1007
loop_
_atom_site_label
_atom_site_type_symbol
_atom_site_fract_x
_atom_site_fract_y
_atom_site_fract_z
_atom_site_U_iso_or_equiv
_atom_site_adp_type
_atom_site_occupancy
Si1    Si    0.05460   0.23334   0.19417   0.00000  Uiso   1.00
Si2    Si    0.18324   0.22548  -0.01816   0.00000  Uiso   1.00
Si3    Si    0.05866  -0.06307   0.27469   0.00000  Uiso   1.00
Si4    Si    0.15872   0.15311   0.27740   0.00000  Uiso   1.00
Si5    Si    0.20123   0.06156   0.80733   0.00000  Uiso   1.00
Si6    Si    0.02969   0.24126   0.89838   0.00000  Uiso   1.00
Si7    Si    0.17709   0.21290   0.72405   0.00000  Uiso   1.00
Si8    Si    0.17523   0.37063   0.08983   0.00000  Uiso   1.00
Si9    Si    0.05410   0.55851   0.19458   0.00000  Uiso   1.00
Si10   Si    0.18610   0.53962   0.01248   0.00000  Uiso   1.00
Si11   Si    0.19436   0.52108   0.28724   0.00000  Uiso   1.00
Si12   Si    0.17880   0.37627   0.81077   0.00000  Uiso   1.00
Si13   Si    0.03713   0.56696   0.92007   0.00000  Uiso   1.00
Si14   Si    0.15486   0.53384   0.72304   0.00000  Uiso   1.00
Si15   Si    0.23133   0.68714   0.12534   0.00000  Uiso   1.00
Si16   Si    0.21212   0.82809   0.03829   0.00000  Uiso   1.00
Si17   Si    0.04770   0.89345   0.62094   0.00000  Uiso   1.00
Si18   Si    0.17177   0.70354   0.81382   0.00000  Uiso   1.00
Si19   Si    0.02465   0.93578   0.87383   0.00000  Uiso   1.00
Si20   Si    0.17707   0.87361   0.73181   0.00000  Uiso   1.00
Si21   Si    0.50001   0.20429   0.00223   0.00000  Uiso   1.00
Si22   Si    0.48073  -0.01030   0.84697   0.00000  Uiso   1.00
Si23   Si    0.34690   0.20569   0.90631   0.00000  Uiso   1.00
Si24   Si    0.49786   0.14845   0.75795   0.00000  Uiso   1.00
Si25   Si    0.49183   0.35814   0.08264   0.00000  Uiso   1.00
Si26   Si    0.32964   0.51075   0.18264   0.00000  Uiso   1.00
Si27   Si    0.49342   0.51116  -0.00962   0.00000  Uiso   1.00
Si28   Si    0.46197   0.19572   0.45457   0.00000  Uiso   1.00
Si29   Si    0.19767   0.49576   0.57878   0.00000  Uiso   1.00
Si30   Si    0.52618   0.32244   0.83404   0.00000  Uiso   1.00
Si31   Si    0.31767   0.50912   0.90749   0.00000  Uiso   1.00
Si32   Si    0.47657   0.64962   0.09083   0.00000  Uiso   1.00
Si33   Si    0.36744   0.79970   0.23407   0.00000  Uiso   1.00
Si34   Si    0.46951   0.78583  -0.01142   0.00000  Uiso   1.00
Si35   Si    0.31431   0.86927   0.62558   0.00000  Uiso   1.00
Si36   Si    0.46225   0.77985   0.36153   0.00000  Uiso   1.00
Si37   Si    0.43274   0.59483   0.77943   0.00000  Uiso   1.00
Si38   Si    0.32183   0.81967   0.91489   0.00000  Uiso   1.00
Si39   Si    0.74746   0.14253   0.21543   0.00000  Uiso   1.00
Si40   Si    0.90311   0.10477   0.41986   0.00000  Uiso   1.00
Si41   Si    0.92175   0.23590   0.30527   0.00000  Uiso   1.00
Si42   Si    0.63697   0.15546   0.92738   0.00000  Uiso   1.00
Si43   Si    0.61932   0.40152   0.20374   0.00000  Uiso   1.00
Si44   Si    0.84803   0.51504  -0.01008   0.00000  Uiso   1.00
Si45   Si    0.87883   0.36806   0.39251   0.00000  Uiso   1.00
Si46   Si    0.52613   0.40161   0.47560   0.00000  Uiso   1.00
Si47   Si    0.66680   0.49584   0.91965   0.00000  Uiso   1.00
Si48   Si    0.66670   0.72386   0.16362   0.00000  Uiso   1.00
Si49   Si    0.86060   0.92457  -0.04276   0.00000  Uiso   1.00
Si50   Si    0.99438   0.73425   0.52472   0.00000  Uiso   1.00
Si51   Si    0.84310   0.86562   0.63732   0.00000  Uiso   1.00
C52    C     0.96873   0.11759   0.16581   0.00000  Uiso   1.00
C53    C     0.14299   0.12086   0.03295   0.00000  Uiso   1.00
C54    C     0.09022  -0.09871   0.19816   0.00000  Uiso   1.00
C55    C    -0.07346   0.86248   0.28848   0.00000  Uiso   1.00
O56    O     0.13550   0.21878   0.23012   0.00000  Uiso   1.00
O57    O     0.08233   0.04231   0.26529   0.00000  Uiso   1.00
C58    C     0.16884   0.18708   0.36672   0.00000  Uiso   1.00
C59    C     0.27371   0.15691   0.24990   0.00000  Uiso   1.00
O60    O     0.10556   0.21425   0.92727   0.00000  Uiso   1.00
C61    C     0.97160   0.27378   0.96836   0.00000  Uiso   1.00
C62    C     0.93478   0.14307   0.85562   0.00000  Uiso   1.00
C63    C     0.05220   0.15841   0.70840   0.00000  Uiso   1.00
O64    O     0.20951   0.13730   0.75129   0.00000  Uiso   1.00
C65    C     0.23669   0.24980   0.64293   0.00000  Uiso   1.00
O66    O     0.08698   0.30059   0.13287   0.00000  Uiso   1.00
O67    O     0.20131   0.30965   0.03649   0.00000  Uiso   1.00
C68    C     0.97043   0.59622   0.23276   0.00000  Uiso   1.00
C69    C     0.98053   0.45970   0.13530   0.00000  Uiso   1.00
O70    O     0.15201   0.43977   0.04800   0.00000  Uiso   1.00
O71    O     0.10579   0.52022   0.24965   0.00000  Uiso   1.00
C72    C     0.17683   0.41762   0.33067   0.00000  Uiso   1.00
C73    C     0.21842   0.61193   0.35189   0.00000  Uiso   1.00
O74    O     0.07875   0.31963   0.84474   0.00000  Uiso   1.00
O75    O     0.20824   0.30524   0.77077   0.00000  Uiso   1.00
O76    O     0.09767   0.55199   0.97965   0.00000  Uiso   1.00
C77    C     0.99746   0.46825   0.86210   0.00000  Uiso   1.00
C78    C     0.02458   0.48623   0.70205   0.00000  Uiso   1.00
O79    O     0.17945   0.45918   0.76505   0.00000  Uiso   1.00
O80    O     0.13549   0.64488   0.16428   0.00000  Uiso   1.00
O81    O     0.23485   0.61462   0.07130   0.00000  Uiso   1.00
O82    O     0.24682   0.77535   0.08449   0.00000  Uiso   1.00
C83    C     0.26458   0.95310   0.06561   0.00000  Uiso   1.00
C84    C     0.14006   1.00429   0.60148   0.00000  Uiso   1.00
C85    C     0.12589   0.92355   0.34749   0.00000  Uiso   1.00
O86    O     0.09667   0.65409   0.87227   0.00000  Uiso   1.00
O87    O     0.18373   0.63147   0.76036   0.00000  Uiso   1.00
C88    C     0.07696   0.86974   0.91600   0.00000  Uiso   1.00
C89    C     0.07936   0.76888   1.05294   0.00000  Uiso   1.00
O90    O     0.10318   1.02405   0.84308   0.00000  Uiso   1.00
C91    C     0.95361   0.85304   0.80537   0.00000  Uiso   1.00
O92    O     0.09418   0.86015   0.68216   0.00000  Uiso   1.00
O93    O     0.15683   0.78439   0.77574   0.00000  Uiso   1.00
O94    O     0.20847   0.96680   0.77745   0.00000  Uiso   1.00
C95    C     0.48403   0.11750   0.06812   0.00000  Uiso   1.00
C96    C     0.53816   0.92491   0.80414   0.00000  Uiso   1.00
O97    O     0.28802   0.11543   0.86050   0.00000  Uiso   1.00
O98    O     0.40513   0.17732   0.96082   0.00000  Uiso   1.00
O99    O     0.27922   0.24491   0.94378   0.00000  Uiso   1.00
C100   C     0.40651   0.15585   0.70299   0.00000  Uiso   1.00
O101   O     0.45530   0.05048   0.79527   0.00000  Uiso   1.00
C102   C     0.58872   0.15126   0.70011   0.00000  Uiso   1.00
C103   C     0.38525   0.27340   0.12286   0.00000  Uiso   1.00
O104   O     0.53303   0.30029   0.03964   0.00000  Uiso   1.00
O105   O     0.26354   0.41920   0.13882   0.00000  Uiso   1.00
C106   C     0.41863   0.49155   0.23133   0.00000  Uiso   1.00
O107   O     0.27147   0.54350   0.23237   0.00000  Uiso   1.00
O108   O     0.47002   0.42291   0.03767   0.00000  Uiso   1.00
C109   C     0.52806   0.16396   0.51714   0.00000  Uiso   1.00
C110   C     0.45847   0.13046   0.37683   0.00000  Uiso   1.00
C111   C     0.33713   0.15811   0.48112   0.00000  Uiso   1.00
C112   C     0.12062   0.37056   0.58153   0.00000  Uiso   1.00
C113   C     0.32247   0.52345   0.55095   0.00000  Uiso   1.00
C114   C     0.14740   0.54916   0.51644   0.00000  Uiso   1.00
O115   O     0.20605   0.54530   0.65156   0.00000  Uiso   1.00
O116   O     0.42309   0.28892   0.86453   0.00000  Uiso   1.00
O117   O     0.53387   0.22966   0.81326   0.00000  Uiso   1.00
C118   C     0.53525   0.38561   0.75934   0.00000  Uiso   1.00
O119   O     0.24832   0.41685   0.87236   0.00000  Uiso   1.00
O120   O     0.40035   0.48959   0.94527   0.00000  Uiso   1.00
O121   O     0.26454   0.54972   0.95740   0.00000  Uiso   1.00
O122   O     0.38492   0.58158   0.12907   0.00000  Uiso   1.00
O123   O     0.51181   0.59646   0.03988   0.00000  Uiso   1.00
O124   O     0.31456   0.71797   0.17829   0.00000  Uiso   1.00
C125   C     0.47364   0.89832   0.19836   0.00000  Uiso   1.00
C126   C     0.28542   0.84527   0.26522   0.00000  Uiso   1.00
O127   O     0.44833   0.71698   0.04896   0.00000  Uiso   1.00
C128   C     0.53735   0.90501   0.02007   0.00000  Uiso   1.00
C129   C     0.55230   0.76739   0.93413   0.00000  Uiso   1.00
C130   C     0.27161   0.74592   0.61085   0.00000  Uiso   1.00
C131   C     0.44243   0.91187   0.64423   0.00000  Uiso   1.00
C132   C     0.30550   0.93138   0.55108   0.00000  Uiso   1.00
O133   O     0.26341   0.89177   0.68776   0.00000  Uiso   1.00
O134   O     0.40340   0.75979   0.29322   0.00000  Uiso   1.00
C135   C     0.47779   0.67991   0.39174   0.00000  Uiso   1.00
C136   C     0.39239   0.81021   0.42740   0.00000  Uiso   1.00
O137   O     0.37047   0.57533   0.84490   0.00000  Uiso   1.00
C138   C     0.39025   0.48781   0.72787   0.00000  Uiso   1.00
C139   C     0.40953   0.67557   0.72607   0.00000  Uiso   1.00
C140   C     0.56018   0.64348   0.79619   0.00000  Uiso   1.00
O141   O     0.27082   0.75663   0.85156   0.00000  Uiso   1.00
O142   O     0.37313   0.77043   0.95207   0.00000  Uiso   1.00
O143   O     0.39304   0.92177   0.88763   0.00000  Uiso   1.00
O144   O     0.24018   0.81699   0.96421   0.00000  Uiso   1.00
C145   C     0.70401   0.02114   0.18130   0.00000  Uiso   1.00
C146   C     0.79476   0.22439   0.14637   0.00000  Uiso   1.00
C147   C     0.64249   0.14918   0.25042   0.00000  Uiso   1.00
C148   C     0.98366   0.13302   0.49641   0.00000  Uiso   1.00
C149   C     0.77632   1.07924   0.44291   0.00000  Uiso   1.00
C150   C     0.89733   1.00292   0.37446   0.00000  Uiso   1.00
O151   O     1.00161   0.26534   0.25020   0.00000  Uiso   1.00
O152   O     0.82344   0.16255   0.27311   0.00000  Uiso   1.00
O153   O     0.94396   0.19011   0.36711   0.00000  Uiso   1.00
O154   O     0.55950   0.05707   0.89651   0.00000  Uiso   1.00
C155   C     0.70333   0.12476   0.99199   0.00000  Uiso   1.00
C156   C     0.72232   0.22468   0.85996   0.00000  Uiso   1.00
O157   O     0.58506   0.21341   0.95454   0.00000  Uiso   1.00
O158   O     0.56500   0.41424   0.14087   0.00000  Uiso   1.00
C159   C     0.53317   0.32831   0.26531   0.00000  Uiso   1.00
C160   C     0.69677   0.35327   0.16987   0.00000  Uiso   1.00
C161   C     0.69331   0.50872   0.25305   0.00000  Uiso   1.00
O162   O     0.94260   0.57151   0.94590   0.00000  Uiso   1.00
C163   C     0.81993   0.39201  -0.00623   0.00000  Uiso   1.00
C164   C     0.87684   0.57607   0.07317   0.00000  Uiso   1.00
C165   C     0.75039   0.31319   0.39842   0.00000  Uiso   1.00
O166   O     0.91026   0.32439   0.32901   0.00000  Uiso   1.00
C167   C     0.91525   0.49174   0.38547   0.00000  Uiso   1.00
C168   C     0.92543   0.34398   0.47427   0.00000  Uiso   1.00
O169   O     0.51297   0.30324   0.44734   0.00000  Uiso   1.00
C170   C     0.64054   0.49523   0.45004   0.00000  Uiso   1.00
C171   C     0.50748   0.39753   0.57050   0.00000  Uiso   1.00
O172   O     0.60693   0.38730   0.88835   0.00000  Uiso   1.00
O173   O     0.74884   0.51107   0.97194   0.00000  Uiso   1.00
C174   C     0.72519   0.56428   0.84696   0.00000  Uiso   1.00
O175   O     0.59102   0.53080   0.94826   0.00000  Uiso   1.00
O176   O     0.56070   0.70318   0.14238   0.00000  Uiso   1.00
C177   C     0.70612   0.65432   0.11009   0.00000  Uiso   1.00
C178   C     0.75320   0.84524   0.15350   0.00000  Uiso   1.00
C179   C     0.67541   0.70728   0.25595   0.00000  Uiso   1.00
C180   C     0.57773   0.88463   0.35595   0.00000  Uiso   1.00
O181   O     0.96098   0.96551   0.92114   0.00000  Uiso   1.00
C182   C     0.82852   0.80872  -0.01188   0.00000  Uiso   1.00
C183   C     0.85964   1.00476   0.02445   0.00000  Uiso   1.00
C184   C     0.77518   0.91468   0.89192   0.00000  Uiso   1.00
C185   C     0.44116   0.43582   0.43246   0.00000  Uiso   1.00
C186   C     0.96000   0.65788   0.59923   0.00000  Uiso   1.00
C187   C     1.09046   0.72955   0.47516   0.00000  Uiso   1.00
C188   C     0.88884   0.70142   0.46962   0.00000  Uiso   1.00
O189   O     1.02857   0.83586   0.55427   0.00000  Uiso   1.00
O190   O     0.95764   0.91023   0.64100   0.00000  Uiso   1.00
C191   C     0.80723   0.87590   0.55081   0.00000  Uiso   1.00
C192   C     0.78871   0.73666   0.66429   0.00000  Uiso   1.00
C193   C     0.79615   0.92431   0.69803   0.00000  Uiso   1.00
H194   H     0.91159   0.11765   0.13775   0.00000  Uiso   1.00
H195   H     0.93666   0.07277   0.21010   0.00000  Uiso   1.00
H196   H     1.00557   0.08432   0.13530   0.00000  Uiso   1.00
H197   H     0.06203   0.08195   0.03124   0.00000  Uiso   1.00
H198   H     0.17284   0.13559   0.08394   0.00000  Uiso   1.00
H199   H     0.16061   0.07156   0.00573   0.00000  Uiso   1.00
H200   H     0.06377  -0.17379   0.19784   0.00000  Uiso   1.00
H201   H     0.16950  -0.06612   0.19059   0.00000  Uiso   1.00
H202   H     0.06060  -0.08711   0.15243   0.00000  Uiso   1.00
H203   H    -0.08854   0.79203   0.26879   0.00000  Uiso   1.00
H204   H    -0.11867   0.89235   0.26809   0.00000  Uiso   1.00
H205   H    -0.08462   0.85343   0.34441   0.00000  Uiso   1.00
H206   H     0.23551   0.24236   0.38174   0.00000  Uiso   1.00
H207   H     0.16325   0.12996   0.39852   0.00000  Uiso   1.00
H208   H     0.11421   0.21344   0.37372   0.00000  Uiso   1.00
H209   H     0.33072   0.22457   0.26254   0.00000  Uiso   1.00
H210   H     0.26071   0.13550   0.19454   0.00000  Uiso   1.00
H211   H     0.27821   0.09561   0.27265   0.00000  Uiso   1.00
H212   H     0.97201   0.23164   1.00790   0.00000  Uiso   1.00
H213   H     0.89459   0.24975   0.95584   0.00000  Uiso   1.00
H214   H     1.01279   0.34787   0.98424   0.00000  Uiso   1.00
H215   H     0.88334   0.10068   0.89044   0.00000  Uiso   1.00
H216   H     0.96266   0.09836   0.83293   0.00000  Uiso   1.00
H217   H     0.90356   0.16925   0.81486   0.00000  Uiso   1.00
H218   H     0.03409   0.13326   0.65573   0.00000  Uiso   1.00
H219   H     0.02859   0.21189   0.72228   0.00000  Uiso   1.00
H220   H     0.02314   0.09914   0.73869   0.00000  Uiso   1.00
H221   H     0.28014   0.21078   0.63572   0.00000  Uiso   1.00
H222   H     0.28028   0.32384   0.63622   0.00000  Uiso   1.00
H223   H     0.18675   0.22093   0.60384   0.00000  Uiso   1.00
H224   H     0.96486   0.65118   0.20229   0.00000  Uiso   1.00
H225   H     0.99530   0.62270   0.27968   0.00000  Uiso   1.00
H226   H     0.89636   0.54307   0.23822   0.00000  Uiso   1.00
H227   H     0.97468   0.39127   0.15150   0.00000  Uiso   1.00
H228   H     1.01197   0.47338   0.08581   0.00000  Uiso   1.00
H229   H     0.90593   0.45266   0.13882   0.00000  Uiso   1.00
H230   H     0.18907   0.37581   0.29661   0.00000  Uiso   1.00
H231   H     0.10776   0.37871   0.35378   0.00000  Uiso   1.00
H232   H     0.23149   0.44218   0.37103   0.00000  Uiso   1.00
H233   H     0.23200   0.67399   0.32498   0.00000  Uiso   1.00
H234   H     0.27143   0.61249   0.38601   0.00000  Uiso   1.00
H235   H     0.14620   0.58750   0.37575   0.00000  Uiso   1.00
H236   H     1.05729   0.45908   0.84118   0.00000  Uiso   1.00
H237   H     0.94335   0.47692   0.82938   0.00000  Uiso   1.00
H238   H     0.95276   0.40589   0.88748   0.00000  Uiso   1.00
H239   H    -0.01139   0.42241   0.72757   0.00000  Uiso   1.00
H240   H     0.01452   0.47079   0.64884   0.00000  Uiso   1.00
H241   H    -0.00318   0.53603   0.71628   0.00000  Uiso   1.00
H242   H     0.29216   0.96959   0.11945   0.00000  Uiso   1.00
H243   H     0.20635   0.97905   0.06508   0.00000  Uiso   1.00
H244   H     0.31702   0.99179   0.02990   0.00000  Uiso   1.00
H245   H     0.11503   1.06062   0.60521   0.00000  Uiso   1.00
H246   H     0.16522   1.00900   0.54941   0.00000  Uiso   1.00
H247   H     0.20431   1.01713   0.63089   0.00000  Uiso   1.00
H248   H     0.09256   0.94090   0.38962   0.00000  Uiso   1.00
H249   H     0.19372   0.97876   0.35486   0.00000  Uiso   1.00
H250   H     0.11560   0.84988   0.34147   0.00000  Uiso   1.00
H251   H     0.11805   0.84639   0.88230   0.00000  Uiso   1.00
H252   H     0.02223   0.80319   0.93058   0.00000  Uiso   1.00
H253   H     0.11362   0.90857   0.96195   0.00000  Uiso   1.00
H254   H     0.03996   0.81183   1.04736   0.00000  Uiso   1.00
H255   H     0.06540   0.74636   1.10454   0.00000  Uiso   1.00
H256   H     0.04765   0.71092   1.01859   0.00000  Uiso   1.00
H257   H     0.93557   0.88981   0.76510   0.00000  Uiso   1.00
H258   H     0.88831   0.79687   0.82939   0.00000  Uiso   1.00
H259   H     0.99416   0.81475   0.78336   0.00000  Uiso   1.00
H260   H     0.54763   0.14226   0.10157   0.00000  Uiso   1.00
H261   H     0.46261   0.05313   0.04098   0.00000  Uiso   1.00
H262   H     0.43552   0.12064   0.10581   0.00000  Uiso   1.00
H263   H     0.56038   0.95542   0.75701   0.00000  Uiso   1.00
H264   H     0.48171   0.84963   0.79214   0.00000  Uiso   1.00
H265   H     0.60253   0.93432   0.82987   0.00000  Uiso   1.00
H266   H     0.37060   0.18557   0.73388   0.00000  Uiso   1.00
H267   H     0.35716   0.08678   0.68027   0.00000  Uiso   1.00
H268   H     0.42729   0.19592   0.65616   0.00000  Uiso   1.00
H269   H     0.64307   0.22220   0.69646   0.00000  Uiso   1.00
H270   H     0.55065   0.12111   0.65109   0.00000  Uiso   1.00
H271   H     0.61913   0.10899   0.72595   0.00000  Uiso   1.00
H272   H     0.41560   0.24320   0.16159   0.00000  Uiso   1.00
H273   H     0.34284   0.22378   0.08478   0.00000  Uiso   1.00
H274   H     0.33133   0.29315   0.14426   0.00000  Uiso   1.00
H275   H     0.39103   0.42006   0.25525   0.00000  Uiso   1.00
H276   H     0.45438   0.54199   0.27333   0.00000  Uiso   1.00
H277   H     0.47635   0.50558   0.19335   0.00000  Uiso   1.00
H278   H     0.55252   0.21301   0.55967   0.00000  Uiso   1.00
H279   H     0.58745   0.15924   0.49079   0.00000  Uiso   1.00
H280   H     0.47752   0.09750   0.53950   0.00000  Uiso   1.00
H281   H     0.42948   0.05906   0.38835   0.00000  Uiso   1.00
H282   H     0.53133   0.15446   0.35512   0.00000  Uiso   1.00
H283   H     0.41268   0.14417   0.33900   0.00000  Uiso   1.00
H284   H     0.33119   0.14628   0.53574   0.00000  Uiso   1.00
H285   H     0.28748   0.09255   0.45525   0.00000  Uiso   1.00
H286   H     0.31700   0.21238   0.46166   0.00000  Uiso   1.00
H287   H     0.04983   0.35949   0.58035   0.00000  Uiso   1.00
H288   H     0.14051   0.34792   0.62896   0.00000  Uiso   1.00
H289   H     0.13274   0.33852   0.53681   0.00000  Uiso   1.00
H290   H     0.37253   0.59578   0.56271   0.00000  Uiso   1.00
H291   H     0.32036   0.51125   0.49571   0.00000  Uiso   1.00
H292   H     0.34874   0.47578   0.57405   0.00000  Uiso   1.00
H293   H     0.09761   0.49822   0.47543   0.00000  Uiso   1.00
H294   H     0.20274   0.60505   0.49365   0.00000  Uiso   1.00
H295   H     0.10984   0.57515   0.54803   0.00000  Uiso   1.00
H296   H     0.53249   0.44864   0.77750   0.00000  Uiso   1.00
H297   H     0.47599   0.34975   0.72141   0.00000  Uiso   1.00
H298   H     0.60705   0.40493   0.73715   0.00000  Uiso   1.00
H299   H     0.52634   0.87959   0.17509   0.00000  Uiso   1.00
H300   H     0.51303   0.96350   0.23201   0.00000  Uiso   1.00
H301   H     0.44448   0.91949   0.15220   0.00000  Uiso   1.00
H302   H     0.31751   0.88706   0.31187   0.00000  Uiso   1.00
H303   H     0.20902   0.78846   0.26709   0.00000  Uiso   1.00
H304   H     0.29137   0.89580   0.22645   0.00000  Uiso   1.00
H305   H     0.49436   0.93715   0.04278   0.00000  Uiso   1.00
H306   H     0.56972   0.93943  -0.02476   0.00000  Uiso   1.00
H307   H     0.59614   0.91202   0.05474   0.00000  Uiso   1.00
H308   H     0.56508   0.80620   0.88640   0.00000  Uiso   1.00
H309   H     0.52774   0.69805   0.91601   0.00000  Uiso   1.00
H310   H     0.62145   0.79314   0.96835   0.00000  Uiso   1.00
H311   H     0.26942   0.71580   0.65855   0.00000  Uiso   1.00
H312   H     0.31215   0.72489   0.56978   0.00000  Uiso   1.00
H313   H     0.19470   0.70744   0.59904   0.00000  Uiso   1.00
H314   H     0.46279   0.86169   0.66899   0.00000  Uiso   1.00
H315   H     0.46242   0.96770   0.67806   0.00000  Uiso   1.00
H316   H     0.48212   0.93115   0.59735   0.00000  Uiso   1.00
H317   H     0.35137   0.92781   0.51009   0.00000  Uiso   1.00
H318   H     0.32631   1.00076   0.57320   0.00000  Uiso   1.00
H319   H     0.22717   0.89995   0.54083   0.00000  Uiso   1.00
H320   H     0.51908   0.66097   0.35648   0.00000  Uiso   1.00
H321   H     0.41336   0.61997   0.39323   0.00000  Uiso   1.00
H322   H     0.51775   0.69872   0.43885   0.00000  Uiso   1.00
H323   H     0.35851   0.85177   0.40703   0.00000  Uiso   1.00
H324   H     0.44237   0.84924   0.46763   0.00000  Uiso   1.00
H325   H     0.34379   0.74385   0.45173   0.00000  Uiso   1.00
H326   H     0.38347   0.42441   0.75672   0.00000  Uiso   1.00
H327   H     0.43319   0.49322   0.68267   0.00000  Uiso   1.00
H328   H     0.31759   0.46815   0.70705   0.00000  Uiso   1.00
H329   H     0.35670   0.69523   0.75003   0.00000  Uiso   1.00
H330   H     0.38303   0.64942   0.67671   0.00000  Uiso   1.00
H331   H     0.47279   0.74058   0.72100   0.00000  Uiso   1.00
H332   H     0.58986   0.61397   0.75657   0.00000  Uiso   1.00
H333   H     0.57280   0.62082   0.84427   0.00000  Uiso   1.00
H334   H     0.58964   0.71682   0.79474   0.00000  Uiso   1.00
H335   H     0.76210   0.01534   0.16087   0.00000  Uiso   1.00
H336   H     0.65586   0.01053   0.13978   0.00000  Uiso   1.00
H337   H     0.67231  -0.03002   0.22288   0.00000  Uiso   1.00
H338   H     0.74125   0.23048   0.11184   0.00000  Uiso   1.00
H339   H     0.84719   0.21193   0.11748   0.00000  Uiso   1.00
H340   H     0.83621   0.28939   0.17650   0.00000  Uiso   1.00
H341   H     0.66118   0.21380   0.27864   0.00000  Uiso   1.00
H342   H     0.60660   0.08974   0.28480   0.00000  Uiso   1.00
H343   H     0.60153   0.14655   0.20653   0.00000  Uiso   1.00
H344   H     0.96729   0.07503   0.52966   0.00000  Uiso   1.00
H345   H     0.97507   0.18366   0.52838   0.00000  Uiso   1.00
H346   H     1.05930   0.16001   0.48091   0.00000  Uiso   1.00
H347   H     0.73729   1.06533   0.38925   0.00000  Uiso   1.00
H348   H     0.77033   1.13889   0.46909   0.00000  Uiso   1.00
H349   H     0.74304   1.01567   0.47248   0.00000  Uiso   1.00
H350   H     0.84531   0.94667   0.40138   0.00000  Uiso   1.00
H351   H     0.96741   1.00666   0.38590   0.00000  Uiso   1.00
H352   H     0.88594   1.00462   0.31946   0.00000  Uiso   1.00
H353   H     0.72163   0.07005   0.97991   0.00000  Uiso   1.00
H354   H     0.65235   0.08458   1.03205   0.00000  Uiso   1.00
H355   H     0.76424   0.18317   1.01458   0.00000  Uiso   1.00
H356   H     0.69399   0.27558   0.84707   0.00000  Uiso   1.00
H357   H     0.71307   0.18127   0.81320   0.00000  Uiso   1.00
H358   H     0.80037   0.26117   0.87419   0.00000  Uiso   1.00
H359   H     0.57185   0.34037   0.31169   0.00000  Uiso   1.00
H360   H     0.51333   0.25130   0.25948   0.00000  Uiso   1.00
H361   H     0.47308   0.34846   0.27572   0.00000  Uiso   1.00
H362   H     0.73520   0.34871   0.21410   0.00000  Uiso   1.00
H363   H     0.73757   0.38830   0.12334   0.00000  Uiso   1.00
H364   H     0.64481   0.28233   0.15452   0.00000  Uiso   1.00
H365   H     0.74250   0.49398   0.28292   0.00000  Uiso   1.00
H366   H     0.64481   0.52054   0.28366   0.00000  Uiso   1.00
H367   H     0.72698   0.56355   0.21772   0.00000  Uiso   1.00
H368   H     0.76127   0.35306   0.02298   0.00000  Uiso   1.00
H369   H     0.87601   0.37627   0.01371   0.00000  Uiso   1.00
H370   H     0.79428   0.36022  -0.05588   0.00000  Uiso   1.00
H371   H     0.82593   0.54348   0.11220   0.00000  Uiso   1.00
H372   H     0.87473   0.63905   0.06743   0.00000  Uiso   1.00
H373   H     0.95075   0.59529   0.09178   0.00000  Uiso   1.00
H374   H     0.72774   0.31827   0.45076   0.00000  Uiso   1.00
H375   H     0.72691   0.23977   0.38642   0.00000  Uiso   1.00
H376   H     0.71803   0.34373   0.36355   0.00000  Uiso   1.00
H377   H     0.99024   0.52879   0.36490   0.00000  Uiso   1.00
H378   H     0.91720   0.51930   0.43828   0.00000  Uiso   1.00
H379   H     0.86978   0.50567   0.35080   0.00000  Uiso   1.00
H380   H     0.93037   0.39274   0.51482   0.00000  Uiso   1.00
H381   H     0.99262   0.34696   0.46742   0.00000  Uiso   1.00
H382   H     0.87921   0.27851   0.49173   0.00000  Uiso   1.00
H383   H     0.70216   0.47768   0.45937   0.00000  Uiso   1.00
H384   H     0.65375   0.55677   0.47826   0.00000  Uiso   1.00
H385   H     0.63291   0.51516   0.39674   0.00000  Uiso   1.00
H386   H     0.57506   0.40108   0.59244   0.00000  Uiso   1.00
H387   H     0.45272   0.32688   0.57773   0.00000  Uiso   1.00
H388   H     0.49079   0.44908   0.59401   0.00000  Uiso   1.00
H389   H     0.77020   0.64277   0.85974   0.00000  Uiso   1.00
H390   H     0.67553   0.55874   0.80691   0.00000  Uiso   1.00
H391   H     0.76993   0.53811   0.82038   0.00000  Uiso   1.00
H392   H     0.65958   0.57838   0.11635   0.00000  Uiso   1.00
H393   H     0.77710   0.66780   0.12778   0.00000  Uiso   1.00
H394   H     0.69626   0.65694   0.05793   0.00000  Uiso   1.00
H395   H     0.73021   0.86570   0.10769   0.00000  Uiso   1.00
H396   H     0.81857   0.84328   0.14606   0.00000  Uiso   1.00
H397   H     0.74622   0.87991   0.19742   0.00000  Uiso   1.00
H398   H     0.61449   0.64524   0.26783   0.00000  Uiso   1.00
H399   H     0.67394   0.76870   0.28183   0.00000  Uiso   1.00
H400   H     0.74223   0.70511   0.26772   0.00000  Uiso   1.00
H401   H     0.62086   0.89722   0.40268   0.00000  Uiso   1.00
H402   H     0.55553   0.94273   0.35548   0.00000  Uiso   1.00
H403   H     0.61103   0.87800   0.31115   0.00000  Uiso   1.00
H404   H     0.74573   0.76796  -0.01683   0.00000  Uiso   1.00
H405   H     0.85336   0.81163   0.04241   0.00000  Uiso   1.00
H406   H     0.86152   0.77770  -0.04718   0.00000  Uiso   1.00
H407   H     0.90161   1.07893   0.00757   0.00000  Uiso   1.00
H408   H     0.88916   0.98589   0.06705   0.00000  Uiso   1.00
H409   H     0.79052   0.99230   0.03869   0.00000  Uiso   1.00
H410   H     0.74391   0.84220   0.87528   0.00000  Uiso   1.00
H411   H     0.80965   0.96043   0.84850   0.00000  Uiso   1.00
H412   H     0.72174   0.92935   0.91471   0.00000  Uiso   1.00
H413   H     0.36767   0.39117   0.44565   0.00000  Uiso   1.00
H414   H     0.45453   0.44156   0.37775   0.00000  Uiso   1.00
H415   H     0.45447   0.50347   0.45587   0.00000  Uiso   1.00
H416   H     0.94487   0.68431   0.64824   0.00000  Uiso   1.00
H417   H     1.01864   0.64238   0.61357   0.00000  Uiso   1.00
H418   H     0.89607   0.59608   0.58672   0.00000  Uiso   1.00
H419   H     1.06787   0.65865   0.45110   0.00000  Uiso   1.00
H420   H     1.15036   0.75107   0.51148   0.00000  Uiso   1.00
H421   H     1.11270   0.77985   0.43751   0.00000  Uiso   1.00
H422   H     0.82810   0.70068   0.49751   0.00000  Uiso   1.00
H423   H     0.86681   0.63163   0.45639   0.00000  Uiso   1.00
H424   H     0.90303   0.74356   0.42565   0.00000  Uiso   1.00
H425   H     0.72659   0.83347   0.53758   0.00000  Uiso   1.00
H426   H     0.84812   0.86484   0.51412   0.00000  Uiso   1.00
H427   H     0.82348   0.94612   0.54182   0.00000  Uiso   1.00
H428   H     0.71043   0.70185   0.67356   0.00000  Uiso   1.00
H429   H     0.82467   0.72844   0.70746   0.00000  Uiso   1.00
H430   H     0.79824   0.69352   0.62304   0.00000  Uiso   1.00
H431   H     0.85154   0.97497   0.73108   0.00000  Uiso   1.00
H432   H     0.75150   0.86633   0.73117   0.00000  Uiso   1.00
H433   H     0.75240   0.95356   0.67712   0.00000  Uiso   1.00
loop_
_geom_bond_atom_site_label_1
_geom_bond_atom_site_label_2
_geom_bond_distance
_geom_bond_site_symmetry_2
_ccdc_geom_bond_type
Si1    O56     1.571   .     S
Si1    O66     1.588   .     S
Si1    C52     1.837   1_455 S
Si1    O151    1.610   1_455 S
Si2    C53     1.857   .     S
Si2    O67     1.648   .     S
Si2    O60     1.584   1_554 S
Si2    O99     1.608   1_554 S
Si3    C54     1.773   .     S
Si3    O57     1.591   .     S
Si3    C55     1.923   1_545 S
Si3    C85     1.868   1_545 S
Si4    O56     1.593   .     S
Si4    O57     1.673   .     S
Si4    C58     1.841   .     S
Si4    C59     1.878   .     S
Si5    O64     1.641   .     S
Si5    O97     1.630   .     S
Si5    O90     1.578   1_545 S
Si5    O94     1.683   1_545 S
Si6    O60     1.557   .     S
Si6    O74     1.601   .     S
Si6    C61     1.867   1_455 S
Si6    C62     1.825   1_455 S
Si7    C63     1.795   .     S
Si7    O64     1.622   .     S
Si7    C65     1.855   .     S
Si7    O75     1.622   .     S
Si8    O66     1.624   .     S
Si8    O67     1.611   .     S
Si8    O70     1.575   .     S
Si8    O105    1.583   .     S
Si9    O71     1.651   .     S
Si9    O80     1.562   .     S
Si9    C68     1.846   1_455 S
Si9    C69     1.890   1_455 S
Si10   O70     1.641   .     S
Si10   O81     1.597   .     S
Si10   O76     1.632   1_554 S
Si10   O121    1.620   1_554 S
Si11   O71     1.579   .     S
Si11   C72     1.813   .     S
Si11   C73     1.841   .     S
Si11   O107    1.571   .     S
Si12   O74     1.603   .     S
Si12   O75     1.616   .     S
Si12   O79     1.635   .     S
Si12   O119    1.570   .     S
Si13   O76     1.610   .     S
Si13   O86     1.640   .     S
Si13   C77     1.820   1_455 S
Si13   O162    1.616   1_455 S
Si14   C78     1.895   .     S
Si14   O79     1.663   .     S
Si14   O87     1.602   .     S
Si14   O115    1.621   .     S
Si15   O80     1.580   .     S
Si15   O81     1.596   .     S
Si15   O82     1.584   .     S
Si15   O124    1.575   .     S
Si16   O82     1.523   .     S
Si16   C83     1.882   .     S
Si16   C89     1.913   1_554 S
Si16   O144    1.578   1_554 S
Si17   C84     1.798   .     S
Si17   O92     1.641   .     S
Si17   O189    1.558   1_455 S
Si17   O190    1.614   1_455 S
Si18   O86     1.625   .     S
Si18   O87     1.636   .     S
Si18   O93     1.630   .     S
Si18   O141    1.591   .     S
Si19   C88     1.828   .     S
Si19   O90     1.564   .     S
Si19   C91     1.871   1_455 S
Si19   O181    1.599   1_455 S
Si20   O92     1.572   .     S
Si20   O93     1.615   .     S
Si20   O94     1.620   .     S
Si20   O133    1.549   .     S
Si21   C95     1.882   .     S
Si21   O104    1.572   .     S
Si21   O98     1.586   1_554 S
Si21   O157    1.609   1_554 S
Si22   O101    1.607   .     S
Si22   O154    1.568   .     S
Si22   C96     1.861   1_545 S
Si22   O143    1.582   1_545 S
Si23   O97     1.603   .     S
Si23   O98     1.620   .     S
Si23   O99     1.642   .     S
Si23   O116    1.611   .     S
Si24   C100    1.856   .     S
Si24   O101    1.625   .     S
Si24   C102    1.836   .     S
Si24   O117    1.594   .     S
Si25   C103    1.844   .     S
Si25   O104    1.596   .     S
Si25   O108    1.542   .     S
Si25   O158    1.590   .     S
Si26   O105    1.619   .     S
Si26   C106    1.844   .     S
Si26   O107    1.591   .     S
Si26   O122    1.552   .     S
Si27   O108    1.633   .     S
Si27   O123    1.597   .     S
Si27   O120    1.617   1_554 S
Si27   O175    1.670   1_554 S
Si28   C109    1.845   .     S
Si28   C110    1.846   .     S
Si28   C111    1.876   .     S
Si28   O169    1.573   .     S
Si29   C112    1.850   .     S
Si29   C113    1.911   .     S
Si29   C114    1.889   .     S
Si29   O115    1.621   .     S
Si30   O116    1.604   .     S
Si30   O117    1.604   .     S
Si30   C118    1.798   .     S
Si30   O172    1.631   .     S
Si31   O119    1.557   .     S
Si31   O120    1.655   .     S
Si31   O121    1.612   .     S
Si31   O137    1.642   .     S
Si32   O122    1.595   .     S
Si32   O123    1.574   .     S
Si32   O127    1.597   .     S
Si32   O176    1.584   .     S
Si33   O124    1.624   .     S
Si33   C125    1.893   .     S
Si33   C126    1.856   .     S
Si33   O134    1.576   .     S
Si34   O127    1.595   .     S
Si34   C128    1.838   .     S
Si34   C129    1.826   1_554 S
Si34   O142    1.600   1_554 S
Si35   C130    1.819   .     S
Si35   C131    1.862   .     S
Si35   C132    1.852   .     S
Si35   O133    1.605   .     S
Si36   O134    1.591   .     S
Si36   C135    1.851   .     S
Si36   C136    1.914   .     S
Si36   C180    1.872   .     S
Si37   O137    1.595   .     S
Si37   C138    1.843   .     S
Si37   C139    1.859   .     S
Si37   C140    1.837   .     S
Si38   O141    1.580   .     S
Si38   O142    1.559   .     S
Si38   O143    1.644   .     S
Si38   O144    1.616   .     S
Si39   C145    1.881   .     S
Si39   C146    1.855   .     S
Si39   C147    1.850   .     S
Si39   O152    1.581   .     S
Si40   C148    1.898   .     S
Si40   O153    1.650   .     S
Si40   C149    1.922   1_545 S
Si40   C150    1.829   1_545 S
Si41   O151    1.596   .     S
Si41   O152    1.602   .     S
Si41   O153    1.569   .     S
Si41   O166    1.583   .     S
Si42   O154    1.626   .     S
Si42   C155    1.866   .     S
Si42   C156    1.911   .     S
Si42   O157    1.583   .     S
Si43   O158    1.585   .     S
Si43   C159    1.855   .     S
Si43   C160    1.842   .     S
Si43   C161    1.863   .     S
Si44   C163    1.841   .     S
Si44   C164    1.863   .     S
Si44   O162    1.642   1_554 S
Si44   O173    1.580   1_554 S
Si45   C165    1.829   .     S
Si45   O166    1.623   .     S
Si45   C167    1.831   .     S
Si45   C168    1.905   .     S
Si46   O169    1.600   .     S
Si46   C170    1.861   .     S
Si46   C171    1.920   .     S
Si46   C185    1.874   .     S
Si47   O172    1.688   .     S
Si47   O173    1.589   .     S
Si47   C174    1.838   .     S
Si47   O175    1.635   .     S
Si48   O176    1.610   .     S
Si48   C177    1.836   .     S
Si48   C178    1.850   .     S
Si48   C179    1.884   .     S
Si49   C182    1.835   .     S
Si49   C183    1.851   .     S
Si49   O181    1.609   1_554 S
Si49   C184    1.825   1_554 S
Si50   C186    1.882   .     S
Si50   C187    1.847   .     S
Si50   C188    1.857   .     S
Si50   O189    1.585   .     S
Si51   O190    1.628   .     S
Si51   C191    1.850   .     S
Si51   C192    1.964   .     S
Si51   C193    1.872   .     S
C52    H194    1.060   .     S
C52    H195    1.130   .     S
C52    H196    1.125   .     S
C52    Si1     1.837   1_655 S
C53    H197    1.151   .     S
C53    H198    1.096   .     S
C53    H199    1.090   .     S
C54    H200    1.096   .     S
C54    H201    1.139   .     S
C54    H202    1.081   .     S
C55    H203    1.118   .     S
C55    H204    1.104   .     S
C55    H205    1.135   .     S
C55    Si3     1.923   1_565 S
C58    H206    1.075   .     S
C58    H207    1.104   .     S
C58    H208    1.127   .     S
C59    H209    1.091   .     S
C59    H210    1.142   .     S
C59    H211    1.129   .     S
O60    Si2     1.584   1_556 S
C61    H212    1.057   .     S
C61    H213    1.127   .     S
C61    H214    1.120   .     S
C61    Si6     1.867   1_655 S
C62    H215    1.074   .     S
C62    H216    1.092   .     S
C62    H217    1.131   .     S
C62    Si6     1.825   1_655 S
C63    H218    1.109   .     S
C63    H219    1.113   .     S
C63    H220    1.067   .     S
C65    H221    1.127   .     S
C65    H222    1.099   .     S
C65    H223    1.050   .     S
C68    H224    1.123   .     S
C68    H225    1.023   .     S
C68    H226    1.114   .     S
C68    Si9     1.846   1_655 S
C69    H227    1.124   .     S
C69    H228    1.093   .     S
C69    H229    1.137   .     S
C69    Si9     1.890   1_655 S
C72    H230    1.027   .     S
C72    H231    1.103   .     S
C72    H232    1.109   .     S
C73    H233    1.086   .     S
C73    H234    1.074   .     S
C73    H235    1.143   .     S
O76    Si10    1.632   1_556 S
C77    H236    1.104   .     S
C77    H237    1.132   .     S
C77    H238    1.083   .     S
C77    Si13    1.820   1_655 S
C78    H239    1.077   .     S
C78    H240    1.082   .     S
C78    H241    1.107   .     S
C83    H242    1.139   .     S
C83    H243    1.168   .     S
C83    H244    1.077   .     S
C84    H245    1.143   .     S
C84    H246    1.109   .     S
C84    H247    1.105   .     S
C85    H248    1.091   .     S
C85    H249    1.057   .     S
C85    H250    1.133   .     S
C85    Si3     1.868   1_565 S
C88    H251    1.109   .     S
C88    H252    1.091   .     S
C88    H253    1.105   .     S
C89    H254    1.125   .     S
C89    H255    1.093   .     S
C89    H256    1.075   .     S
C89    Si16    1.913   1_556 S
O90    Si5     1.578   1_565 S
C91    H257    1.118   .     S
C91    H258    1.150   .     S
C91    H259    1.153   .     S
C91    Si19    1.871   1_655 S
O94    Si5     1.683   1_565 S
C95    H260    1.115   .     S
C95    H261    1.075   .     S
C95    H262    1.095   .     S
C96    H263    1.062   .     S
C96    H264    1.168   .     S
C96    H265    1.085   .     S
C96    Si22    1.861   1_565 S
O98    Si21    1.586   1_556 S
O99    Si2     1.608   1_556 S
C100   H266    1.080   .     S
C100   H267    1.126   .     S
C100   H268    1.117   .     S
C102   H269    1.094   .     S
C102   H270    1.128   .     S
C102   H271    1.125   .     S
C103   H272    1.134   .     S
C103   H273    1.079   .     S
C103   H274    1.118   .     S
C106   H275    1.157   .     S
C106   H276    1.117   .     S
C106   H277    1.138   .     S
C109   H278    1.094   .     S
C109   H279    1.110   .     S
C109   H280    1.124   .     S
C110   H281    1.069   .     S
C110   H282    1.134   .     S
C110   H283    1.134   .     S
C111   H284    1.110   .     S
C111   H285    1.116   .     S
C111   H286    1.132   .     S
C112   H287    1.053   .     S
C112   H288    1.115   .     S
C112   H289    1.083   .     S
C113   H290    1.105   .     S
C113   H291    1.115   .     S
C113   H292    1.129   .     S
C114   H293    1.167   .     S
C114   H294    1.057   .     S
C114   H295    1.068   .     S
C118   H296    1.093   .     S
C118   H297    1.132   .     S
C118   H298    1.133   .     S
O120   Si27    1.617   1_556 S
O121   Si10    1.620   1_556 S
C125   H299    1.106   .     S
C125   H300    1.156   .     S
C125   H301    1.152   .     S
C126   H302    1.117   .     S
C126   H303    1.153   .     S
C126   H304    1.113   .     S
C128   H305    1.115   .     S
C128   H306    1.073   .     S
C128   H307    1.119   .     S
C129   H308    1.124   .     S
C129   H309    1.066   .     S
C129   H310    1.189   .     S
C129   Si34    1.826   1_556 S
C130   H311    1.074   .     S
C130   H312    1.178   .     S
C130   H313    1.116   .     S
C131   H314    1.119   .     S
C131   H315    1.045   .     S
C131   H316    1.104   .     S
C132   H317    1.115   .     S
C132   H318    1.102   .     S
C132   H319    1.128   .     S
C135   H320    1.091   .     S
C135   H321    1.054   .     S
C135   H322    1.090   .     S
C136   H323    1.109   .     S
C136   H324    1.095   .     S
C136   H325    1.132   .     S
C138   H326    1.151   .     S
C138   H327    1.116   .     S
C138   H328    1.122   .     S
C139   H329    1.123   .     S
C139   H330    1.071   .     S
C139   H331    1.094   .     S
C140   H332    1.123   .     S
C140   H333    1.084   .     S
C140   H334    1.068   .     S
O142   Si34    1.600   1_556 S
O143   Si22    1.582   1_565 S
O144   Si16    1.578   1_556 S
C145   H335    1.048   .     S
C145   H336    1.081   .     S
C145   H337    1.139   .     S
C146   H338    1.127   .     S
C146   H339    1.100   .     S
C146   H340    1.121   .     S
C147   H341    1.094   .     S
C147   H342    1.128   .     S
C147   H343    1.076   .     S
C148   H344    1.097   .     S
C148   H345    1.083   .     S
C148   H346    1.126   .     S
C149   H347    1.200   .     S
C149   H348    1.128   .     S
C149   H349    1.113   .     S
C149   Si40    1.922   1_565 S
C150   H350    1.078   .     S
C150   H351    1.105   .     S
C150   H352    1.116   .     S
C150   Si40    1.829   1_565 S
O151   Si1     1.610   1_655 S
C155   H353    1.068   .     S
C155   H354    1.133   .     S
C155   H355    1.095   .     S
C156   H356    1.130   .     S
C156   H357    1.125   .     S
C156   H358    1.140   .     S
O157   Si21    1.609   1_556 S
C159   H359    1.073   .     S
C159   H360    1.145   .     S
C159   H361    1.151   .     S
C160   H362    1.091   .     S
C160   H363    1.145   .     S
C160   H364    1.112   .     S
C161   H365    1.087   .     S
C161   H366    1.062   .     S
C161   H367    1.089   .     S
O162   Si13    1.616   1_655 S
O162   Si44    1.642   1_556 S
C163   H368    1.052   .     S
C163   H369    1.099   .     S
C163   H370    1.096   .     S
C164   H371    1.090   .     S
C164   H372    1.042   .     S
C164   H373    1.127   .     S
C165   H374    1.121   .     S
C165   H375    1.097   .     S
C165   H376    1.106   .     S
C167   H377    1.152   .     S
C167   H378    1.131   .     S
C167   H379    1.091   .     S
C168   H380    1.096   .     S
C168   H381    1.052   .     S
C168   H382    1.056   .     S
C170   H383    1.143   .     S
C170   H384    1.069   .     S
C170   H385    1.141   .     S
C171   H386    1.129   .     S
C171   H387    1.102   .     S
C171   H388    1.079   .     S
O173   Si44    1.580   1_556 S
C174   H389    1.171   .     S
C174   H390    1.092   .     S
C174   H391    1.105   .     S
O175   Si27    1.670   1_556 S
C177   H392    1.131   .     S
C177   H393    1.099   .     S
C177   H394    1.058   .     S
C178   H395    1.093   .     S
C178   H396    1.059   .     S
C178   H397    1.064   .     S
C179   H398    1.074   .     S
C179   H399    1.119   .     S
C179   H400    1.096   .     S
C180   H401    1.113   .     S
C180   H402    1.139   .     S
C180   H403    1.069   .     S
O181   Si19    1.599   1_655 S
O181   Si49    1.609   1_556 S
C182   H404    1.180   .     S
C182   H405    1.145   .     S
C182   H406    1.114   .     S
C183   H407    1.146   .     S
C183   H408    1.080   .     S
C183   H409    1.062   .     S
C184   H410    1.095   .     S
C184   H411    1.130   .     S
C184   H412    1.074   .     S
C184   Si49    1.825   1_556 S
C185   H413    1.102   .     S
C185   H414    1.113   .     S
C185   H415    1.111   .     S
C186   H416    1.129   .     S
C186   H417    1.099   .     S
C186   H418    1.086   .     S
C187   H419    1.134   .     S
C187   H420    1.111   .     S
C187   H421    1.063   .     S
C188   H422    1.109   .     S
C188   H423    1.051   .     S
C188   H424    1.087   .     S
O189   Si17    1.558   1_655 S
O190   Si17    1.614   1_655 S
C191   H425    1.176   .     S
C191   H426    1.044   .     S
C191   H427    1.068   .     S
C192   H428    1.130   .     S
C192   H429    1.073   .     S
C192   H430    1.122   .     S
C193   H431    1.101   .     S
C193   H432    1.126   .     S
C193   H433    1.081   .     S
