data_333-13-11-12-15-30-19
_audit_creation_date              2025-03-07
_audit_creation_method            'Materials Studio'
_symmetry_space_group_name_H-M    'P1'
_symmetry_Int_Tables_number       1
_symmetry_cell_setting            triclinic
loop_
_symmetry_equiv_pos_as_xyz
  x,y,z
_cell_length_a                    16.0346
_cell_length_b                    16.8524
_cell_length_c                    19.0609
_cell_angle_alpha                 81.6216
_cell_angle_beta                  89.6089
_cell_angle_gamma                 120.9640
loop_
_atom_site_label
_atom_site_type_symbol
_atom_site_fract_x
_atom_site_fract_y
_atom_site_fract_z
_atom_site_U_iso_or_equiv
_atom_site_adp_type
_atom_site_occupancy
Si1    Si    0.09357  -0.10237   0.40426   0.00000  Uiso   1.00
Si2    Si    0.06890   0.04319   0.29800   0.00000  Uiso   1.00
Si3    Si    0.18631  -0.02575   0.72882   0.00000  Uiso   1.00
Si4    Si    0.18227   0.41808   0.14004   0.00000  Uiso   1.00
Si5    Si   -0.04317   0.49143   0.16607   0.00000  Uiso   1.00
Si6    Si    0.18032   0.54439   0.00574   0.00000  Uiso   1.00
Si7    Si    0.04219   0.55643   0.59628   0.00000  Uiso   1.00
Si8    Si    0.04908   0.47630   0.30955   0.00000  Uiso   1.00
Si9    Si    0.24228   0.34696   0.91438   0.00000  Uiso   1.00
Si10   Si    0.03962   0.52585   0.88712   0.00000  Uiso   1.00
Si11   Si    0.19493   0.54853   0.68300   0.00000  Uiso   1.00
Si12   Si    0.12110   0.66295   0.08167   0.00000  Uiso   1.00
Si13   Si   -0.08329   0.82877   0.15416   0.00000  Uiso   1.00
Si14   Si    0.17750   0.81293  -0.05724   0.00000  Uiso   1.00
Si15   Si    0.01021   0.81308   0.56579   0.00000  Uiso   1.00
Si16   Si   -0.01366   0.76625   0.28896   0.00000  Uiso   1.00
Si17   Si    0.20490   0.69469   0.76831   0.00000  Uiso   1.00
Si18   Si    0.03266   0.79911   0.83425   0.00000  Uiso   1.00
Si19   Si    0.19245   0.83092   0.65315   0.00000  Uiso   1.00
Si20   Si    0.50651   0.16165  -0.02506   0.00000  Uiso   1.00
Si21   Si    0.46820  -0.07050   0.43637   0.00000  Uiso   1.00
Si22   Si    0.44343   0.23949   0.55666   0.00000  Uiso   1.00
Si23   Si    0.51040   0.08816   0.32118   0.00000  Uiso   1.00
Si24   Si    0.53748   0.04614   0.77937   0.00000  Uiso   1.00
Si25   Si    0.55090   0.21319   0.68228   0.00000  Uiso   1.00
Si26   Si    0.25290   0.51968   0.26872   0.00000  Uiso   1.00
Si27   Si    0.28845   0.49233   0.57670   0.00000  Uiso   1.00
Si28   Si    0.37066   0.43220   0.32007   0.00000  Uiso   1.00
Si29   Si    0.57216   0.36636   0.76313   0.00000  Uiso   1.00
Si30   Si    0.35480   0.56515   0.91725   0.00000  Uiso   1.00
Si31   Si    0.43993   0.70735   0.22092   0.00000  Uiso   1.00
Si32   Si    0.15943   0.77828   0.20685   0.00000  Uiso   1.00
Si33   Si    0.52315   0.85867  -0.05928   0.00000  Uiso   1.00
Si34   Si    0.67629   0.76062   0.51676   0.00000  Uiso   1.00
Si35   Si    0.39412   0.86248   0.59251   0.00000  Uiso   1.00
Si36   Si    0.49465   0.70899   0.78750   0.00000  Uiso   1.00
Si37   Si    0.36126   0.84745   0.85629   0.00000  Uiso   1.00
Si38   Si    0.54906   0.90139   0.69696   0.00000  Uiso   1.00
Si39   Si    0.67213   0.12029   0.21956   0.00000  Uiso   1.00
Si40   Si    0.82314   0.13983  -0.03699   0.00000  Uiso   1.00
Si41   Si    0.89299   0.07789   0.51309   0.00000  Uiso   1.00
Si42   Si    0.68583   0.20442   0.58480   0.00000  Uiso   1.00
Si43   Si    0.96300   0.00910   0.76460   0.00000  Uiso   1.00
Si44   Si    0.68500   0.18448   0.88516   0.00000  Uiso   1.00
Si45   Si    0.51396   0.42494   0.22230   0.00000  Uiso   1.00
Si46   Si    0.87811   0.37802   0.81138   0.00000  Uiso   1.00
Si47   Si    0.68787   0.49940   0.86272   0.00000  Uiso   1.00
Si48   Si    0.87392   0.52068   0.69052   0.00000  Uiso   1.00
Si49   Si    0.73048   0.90284   0.61483   0.00000  Uiso   1.00
Si50   Si    0.85720   0.66619   0.76080   0.00000  Uiso   1.00
Si51   Si    0.88368   0.84955   0.67632   0.00000  Uiso   1.00
C52    C    -0.07073  -0.03464   0.28790   0.00000  Uiso   1.00
O53    O     0.08860  -0.01096   0.36696   0.00000  Uiso   1.00
C54    C     0.08897   0.15380   0.31139   0.00000  Uiso   1.00
C55    C     0.13878   0.06194   0.21994   0.00000  Uiso   1.00
C56    C     0.17795   0.05996   0.65969   0.00000  Uiso   1.00
C57    C     0.29036   0.04515   0.77904   0.00000  Uiso   1.00
C58    C     0.06487   0.31905   0.18011   0.00000  Uiso   1.00
C59    C     0.25779   0.36316   0.14197   0.00000  Uiso   1.00
C60    C     0.85675   0.49625   0.21290   0.00000  Uiso   1.00
C61    C     0.91028   0.39494   0.11976   0.00000  Uiso   1.00
O62    O     0.16491   0.45624   0.06165   0.00000  Uiso   1.00
C63    C     0.12784   0.66314   0.52835   0.00000  Uiso   1.00
C64    C     0.98274   0.46266   0.54018   0.00000  Uiso   1.00
O65    O     0.02304   0.48423   0.22716   0.00000  Uiso   1.00
C66    C    -0.02224   0.34886   0.35103   0.00000  Uiso   1.00
C67    C     0.01892   0.54857   0.35965   0.00000  Uiso   1.00
C68    C     0.31438   0.30598   0.96854   0.00000  Uiso   1.00
C69    C     0.21739   0.29134   0.83109   0.00000  Uiso   1.00
O70    O     0.09311   0.50666   0.95297   0.00000  Uiso   1.00
C71    C     0.95598   0.55543   0.92366   0.00000  Uiso   1.00
O72    O     0.09927   0.52012   0.64491   0.00000  Uiso   1.00
C73    C     0.12290   0.29731   0.96609   0.00000  Uiso   1.00
C74    C     0.17470   0.44996   0.75247   0.00000  Uiso   1.00
O75    O     0.01522   0.58025   0.10545   0.00000  Uiso   1.00
O76    O     0.18490   0.62380   0.04779   0.00000  Uiso   1.00
C77    C    -0.01527   0.94686   0.09375   0.00000  Uiso   1.00
C78    C     0.78432   0.78472   0.17584   0.00000  Uiso   1.00
C79    C     0.92871   0.74267   0.10785   0.00000  Uiso   1.00
O80    O     0.12242   0.73923   0.01568   0.00000  Uiso   1.00
C81    C     0.18501   0.91994  -0.03766   0.00000  Uiso   1.00
O82    O     0.04778   0.87171   0.48664   0.00000  Uiso   1.00
C83    C     0.91743   0.69880   0.54921   0.00000  Uiso   1.00
O84    O    -0.03928   0.82999   0.23017   0.00000  Uiso   1.00
C85    C    -0.13386   0.65602   0.32291   0.00000  Uiso   1.00
O86    O     0.03685   0.81647   0.35618   0.00000  Uiso   1.00
O87    O     0.11603   0.61125   0.82569   0.00000  Uiso   1.00
O88    O     0.23295   0.64051   0.71727   0.00000  Uiso   1.00
O89    O     0.10630   0.77722   0.88099   0.00000  Uiso   1.00
O90    O     0.09009   0.90036   0.78292   0.00000  Uiso   1.00
C91    C     0.93912   0.79666   0.90076   0.00000  Uiso   1.00
O92    O     0.09987   0.80743   0.60630   0.00000  Uiso   1.00
O93    O     0.16222   0.74463   0.71685   0.00000  Uiso   1.00
O94    O     0.22026   0.91976   0.68935   0.00000  Uiso   1.00
C95    C     0.46757   0.07557   0.05830   0.00000  Uiso   1.00
C96    C     0.50247   0.25998  -0.00127   0.00000  Uiso   1.00
C97    C     0.41267   0.10563   0.91190   0.00000  Uiso   1.00
C98    C     0.38338   0.81687   0.40800   0.00000  Uiso   1.00
C99    C     0.21827  -0.07920   0.41277   0.00000  Uiso   1.00
C100   C     0.38243   0.13752   0.51136   0.00000  Uiso   1.00
C101   C     0.55800   0.32804   0.49958   0.00000  Uiso   1.00
C102   C     0.37400   0.30197   0.55675   0.00000  Uiso   1.00
C103   C     0.41264   0.06692   0.25879   0.00000  Uiso   1.00
O104   O     0.45698   0.00814   0.38722   0.00000  Uiso   1.00
C105   C     0.56780   0.20766   0.33847   0.00000  Uiso   1.00
O106   O     0.46796   0.21445   0.63524   0.00000  Uiso   1.00
O107   O     0.51877   0.10994   0.71929   0.00000  Uiso   1.00
O108   O     0.22411   0.49840   0.19026   0.00000  Uiso   1.00
O109   O     0.16207   0.50868   0.31219   0.00000  Uiso   1.00
C110   C     0.19570   0.37151   0.60571   0.00000  Uiso   1.00
C111   C     0.41427   0.51819   0.58960   0.00000  Uiso   1.00
O112   O     0.26950   0.55398   0.62437   0.00000  Uiso   1.00
O113   O     0.28610   0.45202   0.30713   0.00000  Uiso   1.00
C114   C     0.32194   0.31377   0.37460   0.00000  Uiso   1.00
C115   C     0.44530   0.31528   0.80933   0.00000  Uiso   1.00
O116   O     0.57980   0.28443   0.73778   0.00000  Uiso   1.00
C117   C     0.58606   0.45445   0.68933   0.00000  Uiso   1.00
O118   O     0.29150   0.46044   0.89565   0.00000  Uiso   1.00
C119   C     0.44966   0.55978   0.97329   0.00000  Uiso   1.00
O120   O     0.28240   0.58370   0.96191   0.00000  Uiso   1.00
O121   O     0.33728   0.62739   0.26519   0.00000  Uiso   1.00
C122   C     0.49439   0.65254   0.17678   0.00000  Uiso   1.00
C123   C     0.52491   0.76877   0.28518   0.00000  Uiso   1.00
O124   O     0.15935   0.71206   0.15270   0.00000  Uiso   1.00
C125   C     0.22807   0.75812   0.27708   0.00000  Uiso   1.00
C126   C     0.22133   0.90477   0.16462   0.00000  Uiso   1.00
O127   O     0.05299   0.73949   0.24766   0.00000  Uiso   1.00
C128   C     0.42502   0.78548   0.15196   0.00000  Uiso   1.00
C129   C     0.53182   0.76591   0.00632   0.00000  Uiso   1.00
C130   C     0.51724   0.93918  -0.00604   0.00000  Uiso   1.00
C131   C     0.64242   0.92701   0.88650   0.00000  Uiso   1.00
C132   C     0.26527   0.51276   0.47964   0.00000  Uiso   1.00
C133   C     0.57566   0.71808   0.46212   0.00000  Uiso   1.00
C134   C     0.46776   0.51747   0.37613   0.00000  Uiso   1.00
C135   C     0.67943   0.66876   0.57877   0.00000  Uiso   1.00
C136   C     0.77871   0.81113   0.44987   0.00000  Uiso   1.00
C137   C     0.38163   0.75362   0.58210   0.00000  Uiso   1.00
O138   O     0.44257   0.92829   0.51722   0.00000  Uiso   1.00
O139   O     0.28938   0.85403   0.60954   0.00000  Uiso   1.00
O140   O     0.40475   0.64640   0.84853   0.00000  Uiso   1.00
C141   C     0.46946   0.63473   0.71951   0.00000  Uiso   1.00
C142   C     0.61237   0.73143   0.81565   0.00000  Uiso   1.00
O143   O     0.30480   0.77899   0.79890   0.00000  Uiso   1.00
O144   O     0.43458   0.82019   0.89483   0.00000  Uiso   1.00
O145   O     0.43003   0.96147   0.82266   0.00000  Uiso   1.00
O146   O     0.27996   0.82589   0.91877   0.00000  Uiso   1.00
O147   O     0.46624   0.90093   0.65044   0.00000  Uiso   1.00
O148   O     0.49596   0.80547   0.75343   0.00000  Uiso   1.00
O149   O     0.58006   0.99034   0.73924   0.00000  Uiso   1.00
C150   C     0.64285   0.02238   0.17241   0.00000  Uiso   1.00
C151   C     0.78896   0.16562   0.25437   0.00000  Uiso   1.00
C152   C     0.67256   0.21908   0.15098   0.00000  Uiso   1.00
O153   O     0.58676   0.07563   0.28222   0.00000  Uiso   1.00
C154   C     0.91355   0.18049   0.88318   0.00000  Uiso   1.00
C155   C     0.79721   0.02348   0.01444   0.00000  Uiso   1.00
C156   C     0.88019   0.22446   0.02417   0.00000  Uiso   1.00
C157   C     0.83841   0.09032   0.42892   0.00000  Uiso   1.00
C158   C     0.96205   0.19864   0.53223   0.00000  Uiso   1.00
C159   C     0.98513   1.04265   0.49664   0.00000  Uiso   1.00
C160   C     0.59318  -0.04567   0.42956   0.00000  Uiso   1.00
C161   C     0.59261   0.10152   0.55271   0.00000  Uiso   1.00
C162   C     0.75542   0.16534   0.64285   0.00000  Uiso   1.00
C163   C     0.76687   0.29375   0.50123   0.00000  Uiso   1.00
O164   O     0.63797   0.24759   0.62630   0.00000  Uiso   1.00
C165   C     0.99782   0.12029   0.70465   0.00000  Uiso   1.00
C166   C     1.05029   0.03456   0.83620   0.00000  Uiso   1.00
C167   C     0.84300   0.96880   0.80775   0.00000  Uiso   1.00
O168   O     0.61523   0.11435   0.83051   0.00000  Uiso   1.00
O169   O     0.72771   0.13524   0.93817   0.00000  Uiso   1.00
O170   O     0.61319   0.19755   0.93432   0.00000  Uiso   1.00
C171   C     0.60779   0.45242   0.28797   0.00000  Uiso   1.00
C172   C     0.57576   0.49320   0.13443   0.00000  Uiso   1.00
C173   C     0.45648   0.30220   0.20315   0.00000  Uiso   1.00
O174   O     0.42482   0.43571   0.25074   0.00000  Uiso   1.00
O175   O     0.77252   0.29061   0.84862   0.00000  Uiso   1.00
C176   C     0.90931   0.32444   0.74826   0.00000  Uiso   1.00
O177   O     0.96482   0.42847   0.86135   0.00000  Uiso   1.00
O178   O     0.65546   0.42168   0.81320   0.00000  Uiso   1.00
C179   C     0.71737   0.45738   0.94787   0.00000  Uiso   1.00
C180   C     0.59756   0.52632   0.88893   0.00000  Uiso   1.00
O181   O     0.97568   0.57534   0.64224   0.00000  Uiso   1.00
C182   C     0.79106   0.45308   0.62356   0.00000  Uiso   1.00
O183   O     0.87148   0.45950   0.76681   0.00000  Uiso   1.00
O184   O     0.68456   0.84070   0.55605   0.00000  Uiso   1.00
O185   O     0.80512   1.00791   0.57303   0.00000  Uiso   1.00
O186   O     0.64263   0.90495   0.65952   0.00000  Uiso   1.00
O187   O     0.77929   0.60367   0.82661   0.00000  Uiso   1.00
O188   O     0.84681   0.59779   0.70852   0.00000  Uiso   1.00
O189   O     0.96694   0.71861   0.78690   0.00000  Uiso   1.00
O190   O     0.95591   0.85879   0.60662   0.00000  Uiso   1.00
O191   O     0.79215   0.86474   0.66155   0.00000  Uiso   1.00
O192   O     0.83738   0.74592   0.72121   0.00000  Uiso   1.00
O193   O     0.94960   0.92564   0.72485   0.00000  Uiso   1.00
H194   H    -0.08469  -0.02558   0.23239   0.00000  Uiso   1.00
H195   H    -0.10504  -0.01048   0.31881   0.00000  Uiso   1.00
H196   H    -0.10606  -0.10845   0.30743   0.00000  Uiso   1.00
H197   H     0.15173   0.21247   0.27724   0.00000  Uiso   1.00
H198   H     0.10777   0.17177   0.36535   0.00000  Uiso   1.00
H199   H     0.02205   0.15493   0.30061   0.00000  Uiso   1.00
H200   H     0.12644   0.10660   0.17743   0.00000  Uiso   1.00
H201   H     0.11504  -0.00339   0.19963   0.00000  Uiso   1.00
H202   H     0.21868   0.09195   0.22458   0.00000  Uiso   1.00
H203   H     0.19503   0.12243   0.68764   0.00000  Uiso   1.00
H204   H     0.10458   0.03330   0.64362   0.00000  Uiso   1.00
H205   H     0.23400   0.09554   0.61331   0.00000  Uiso   1.00
H206   H     0.35720   0.08899   0.74842   0.00000  Uiso   1.00
H207   H     0.30236  -0.00446   0.81815   0.00000  Uiso   1.00
H208   H     0.27373   0.08800   0.80900   0.00000  Uiso   1.00
H209   H     0.07353   0.30700   0.24028   0.00000  Uiso   1.00
H210   H     0.04532   0.25389   0.15695   0.00000  Uiso   1.00
H211   H     0.01117   0.33861   0.17302   0.00000  Uiso   1.00
H212   H     0.32287   0.40688   0.10550   0.00000  Uiso   1.00
H213   H     0.21592   0.29945   0.12114   0.00000  Uiso   1.00
H214   H     0.27179   0.35561   0.19619   0.00000  Uiso   1.00
H215   H     0.82123   0.43565   0.25510   0.00000  Uiso   1.00
H216   H     0.80608   0.49013   0.17471   0.00000  Uiso   1.00
H217   H     0.89029   0.56232   0.23344   0.00000  Uiso   1.00
H218   H     0.96666   0.39937   0.08163   0.00000  Uiso   1.00
H219   H     0.85611   0.39828   0.08525   0.00000  Uiso   1.00
H220   H     0.87417   0.32607   0.15454   0.00000  Uiso   1.00
H221   H     0.08857   0.68501   0.48950   0.00000  Uiso   1.00
H222   H     0.18020   0.65537   0.50010   0.00000  Uiso   1.00
H223   H     0.16782   0.72299   0.55396   0.00000  Uiso   1.00
H224   H     0.92204   0.46146   0.51606   0.00000  Uiso   1.00
H225   H     0.95270   0.39615   0.57932   0.00000  Uiso   1.00
H226   H     1.04268   0.47059   0.50507   0.00000  Uiso   1.00
H227   H     0.01015   0.33748   0.39493   0.00000  Uiso   1.00
H228   H    -0.01666   0.30614   0.31367   0.00000  Uiso   1.00
H229   H    -0.09780   0.32925   0.36207   0.00000  Uiso   1.00
H230   H    -0.05479   0.50210   0.39008   0.00000  Uiso   1.00
H231   H     0.02163   0.60350   0.32131   0.00000  Uiso   1.00
H232   H     0.08123   0.57813   0.39359   0.00000  Uiso   1.00
H233   H     0.39008   0.34017   0.94060   0.00000  Uiso   1.00
H234   H     0.27447   0.22893   0.97070   0.00000  Uiso   1.00
H235   H     0.31279   0.32010   1.02266   0.00000  Uiso   1.00
H236   H     0.26924   0.33088   0.78326   0.00000  Uiso   1.00
H237   H     0.14605   0.28294   0.82178   0.00000  Uiso   1.00
H238   H     0.22069   0.22547   0.84822   0.00000  Uiso   1.00
H239   H     0.90215   0.49176   0.96169   0.00000  Uiso   1.00
H240   H     0.91528   0.56230   0.87682   0.00000  Uiso   1.00
H241   H     0.99363   0.61590   0.94607   0.00000  Uiso   1.00
H242   H     0.06992   0.21487   0.97408   0.00000  Uiso   1.00
H243   H     0.08591   0.32765   0.93520   0.00000  Uiso   1.00
H244   H     0.12946   0.31627   1.01840   0.00000  Uiso   1.00
H245   H     0.24893   0.46375   0.75256   0.00000  Uiso   1.00
H246   H     0.11602   0.38046   0.73876   0.00000  Uiso   1.00
H247   H     0.15654   0.46052   0.80474   0.00000  Uiso   1.00
H248   H    -0.04371   0.93526   0.04146   0.00000  Uiso   1.00
H249   H     0.06713   0.97899   0.09320   0.00000  Uiso   1.00
H250   H    -0.03427   0.99476   0.11354   0.00000  Uiso   1.00
H251   H     0.74325   0.71057   0.20049   0.00000  Uiso   1.00
H252   H     0.75351   0.79767   0.12810   0.00000  Uiso   1.00
H253   H     0.77630   0.83056   0.21345   0.00000  Uiso   1.00
H254   H     1.00605   0.76869   0.09890   0.00000  Uiso   1.00
H255   H     0.88719   0.72973   0.06017   0.00000  Uiso   1.00
H256   H     0.90217   0.67736   0.14180   0.00000  Uiso   1.00
H257   H     0.19449   0.96792  -0.08555   0.00000  Uiso   1.00
H258   H     0.24691   0.95999  -0.00451   0.00000  Uiso   1.00
H259   H     0.12136   0.90932  -0.00431   0.00000  Uiso   1.00
H260   H     0.86715   0.65395   0.59706   0.00000  Uiso   1.00
H261   H     0.94333   0.66055   0.52316   0.00000  Uiso   1.00
H262   H     0.87102   0.70477   0.50889   0.00000  Uiso   1.00
H263   H    -0.17708   0.63046   0.27802   0.00000  Uiso   1.00
H264   H    -0.16619   0.67986   0.36275   0.00000  Uiso   1.00
H265   H    -0.11802   0.60214   0.34975   0.00000  Uiso   1.00
H266   H     0.87909   0.80638   0.87631   0.00000  Uiso   1.00
H267   H     0.97031   0.83360   0.94855   0.00000  Uiso   1.00
H268   H     0.89691   0.72264   0.93189   0.00000  Uiso   1.00
H269   H     0.43861   0.10087   0.09380   0.00000  Uiso   1.00
H270   H     0.53129   0.07960   0.08410   0.00000  Uiso   1.00
H271   H     0.41278   0.00651   0.05109   0.00000  Uiso   1.00
H272   H     0.51978   0.31203  -0.04803   0.00000  Uiso   1.00
H273   H     0.55489   0.28967   0.03925   0.00000  Uiso   1.00
H274   H     0.43142   0.23751   0.02089   0.00000  Uiso   1.00
H275   H     0.38439   0.02811   0.91589   0.00000  Uiso   1.00
H276   H     0.45387   0.13472   0.86181   0.00000  Uiso   1.00
H277   H     0.35131   0.11560   0.91593   0.00000  Uiso   1.00
H278   H     0.40933   0.76578   0.42407   0.00000  Uiso   1.00
H279   H     0.38801   0.82900   0.35025   0.00000  Uiso   1.00
H280   H     0.30764   0.79277   0.43126   0.00000  Uiso   1.00
H281   H     0.22487  -0.13674   0.43979   0.00000  Uiso   1.00
H282   H     0.25612  -0.01834   0.44045   0.00000  Uiso   1.00
H283   H     0.24802  -0.07409   0.35823   0.00000  Uiso   1.00
H284   H     0.34913   0.15180   0.46195   0.00000  Uiso   1.00
H285   H     0.33198   0.07269   0.54990   0.00000  Uiso   1.00
H286   H     0.43769   0.12538   0.48635   0.00000  Uiso   1.00
H287   H     0.58425   0.28331   0.47803   0.00000  Uiso   1.00
H288   H     0.61185   0.38228   0.52694   0.00000  Uiso   1.00
H289   H     0.52959   0.35654   0.46016   0.00000  Uiso   1.00
H290   H     0.39574   0.33374   0.60430   0.00000  Uiso   1.00
H291   H     0.29491   0.25274   0.56194   0.00000  Uiso   1.00
H292   H     0.39515   0.35238   0.50850   0.00000  Uiso   1.00
H293   H     0.44206   0.12325   0.20925   0.00000  Uiso   1.00
H294   H     0.34615   0.06310   0.28013   0.00000  Uiso   1.00
H295   H     0.38954   0.00020   0.24208   0.00000  Uiso   1.00
H296   H     0.61180   0.21710   0.38395   0.00000  Uiso   1.00
H297   H     0.51029   0.22615   0.35254   0.00000  Uiso   1.00
H298   H     0.62548   0.26067   0.29486   0.00000  Uiso   1.00
H299   H     0.22675   0.34929   0.64914   0.00000  Uiso   1.00
H300   H     0.18918   0.32844   0.56897   0.00000  Uiso   1.00
H301   H     0.12220   0.35804   0.61345   0.00000  Uiso   1.00
H302   H     0.42749   0.48433   0.54642   0.00000  Uiso   1.00
H303   H     0.41811   0.48042   0.64118   0.00000  Uiso   1.00
H304   H     0.47000   0.58918   0.58320   0.00000  Uiso   1.00
H305   H     0.37864   0.30901   0.39800   0.00000  Uiso   1.00
H306   H     0.28480   0.25012   0.35307   0.00000  Uiso   1.00
H307   H     0.27570   0.30626   0.41789   0.00000  Uiso   1.00
H308   H     0.38978   0.28017   0.77266   0.00000  Uiso   1.00
H309   H     0.43266   0.37067   0.81916   0.00000  Uiso   1.00
H310   H     0.43822   0.26634   0.85805   0.00000  Uiso   1.00
H311   H     0.55002   0.42082   0.64377   0.00000  Uiso   1.00
H312   H     0.66306   0.50075   0.67044   0.00000  Uiso   1.00
H313   H     0.55638   0.49485   0.70426   0.00000  Uiso   1.00
H314   H     0.52217   0.60875   0.95336   0.00000  Uiso   1.00
H315   H     0.43792   0.48914   0.97880   0.00000  Uiso   1.00
H316   H     0.44206   0.57591   1.02652   0.00000  Uiso   1.00
H317   H     0.44862   0.60254   0.14060   0.00000  Uiso   1.00
H318   H     0.51905   0.61339   0.21949   0.00000  Uiso   1.00
H319   H     0.55524   0.70694   0.14023   0.00000  Uiso   1.00
H320   H     0.52824   0.83324   0.28227   0.00000  Uiso   1.00
H321   H     0.59775   0.78223   0.26669   0.00000  Uiso   1.00
H322   H     0.50099   0.71955   0.33447   0.00000  Uiso   1.00
H323   H     0.21060   0.77130   0.32677   0.00000  Uiso   1.00
H324   H     0.30521   0.80740   0.26026   0.00000  Uiso   1.00
H325   H     0.22437   0.69016   0.27600   0.00000  Uiso   1.00
H326   H     0.29077   0.93601   0.13131   0.00000  Uiso   1.00
H327   H     0.23088   0.94434   0.20951   0.00000  Uiso   1.00
H328   H     0.16742   0.91023   0.13098   0.00000  Uiso   1.00
H329   H     0.49712   0.82960   0.11867   0.00000  Uiso   1.00
H330   H     0.41581   0.83858   0.17807   0.00000  Uiso   1.00
H331   H     0.35917   0.74699   0.12304   0.00000  Uiso   1.00
H332   H     0.55346   0.73459  -0.03037   0.00000  Uiso   1.00
H333   H     0.46117   0.72490   0.04019   0.00000  Uiso   1.00
H334   H     0.59712   0.80553   0.03301   0.00000  Uiso   1.00
H335   H     0.44423   0.89625   0.02191   0.00000  Uiso   1.00
H336   H     0.52375   0.99763  -0.04326   0.00000  Uiso   1.00
H337   H     0.57070   0.95538   0.03408   0.00000  Uiso   1.00
H338   H     0.69334   0.90604   0.90339   0.00000  Uiso   1.00
H339   H     0.67721   1.00102   0.88206   0.00000  Uiso   1.00
H340   H     0.63104   0.91393   0.83180   0.00000  Uiso   1.00
H341   H     0.27589   0.46192   0.45578   0.00000  Uiso   1.00
H342   H     0.32189   0.58808   0.45382   0.00000  Uiso   1.00
H343   H     0.19322   0.49651   0.47124   0.00000  Uiso   1.00
H344   H     0.58149   0.77614   0.42405   0.00000  Uiso   1.00
H345   H     0.50533   0.69830   0.49267   0.00000  Uiso   1.00
H346   H     0.57802   0.67005   0.43113   0.00000  Uiso   1.00
H347   H     0.42893   0.53157   0.41720   0.00000  Uiso   1.00
H348   H     0.52289   0.58818   0.34352   0.00000  Uiso   1.00
H349   H     0.50576   0.48676   0.40697   0.00000  Uiso   1.00
H350   H     0.75454   0.69392   0.60277   0.00000  Uiso   1.00
H351   H     0.65573   0.61104   0.54745   0.00000  Uiso   1.00
H352   H     0.62870   0.65231   0.62205   0.00000  Uiso   1.00
H353   H     0.77771   0.86645   0.41152   0.00000  Uiso   1.00
H354   H     0.77629   0.76270   0.41436   0.00000  Uiso   1.00
H355   H     0.85357   0.83893   0.47395   0.00000  Uiso   1.00
H356   H     0.37413   0.71239   0.63586   0.00000  Uiso   1.00
H357   H     0.45164   0.78121   0.55258   0.00000  Uiso   1.00
H358   H     0.31900   0.71179   0.55029   0.00000  Uiso   1.00
H359   H     0.39145   0.60602   0.71156   0.00000  Uiso   1.00
H360   H     0.48177   0.57681   0.73768   0.00000  Uiso   1.00
H361   H     0.51671   0.68121   0.66872   0.00000  Uiso   1.00
H362   H     0.65864   0.80380   0.79385   0.00000  Uiso   1.00
H363   H     0.64151   0.69994   0.78007   0.00000  Uiso   1.00
H364   H     0.62503   0.72944   0.87525   0.00000  Uiso   1.00
H365   H     0.66709  -0.02499   0.20046   0.00000  Uiso   1.00
H366   H     0.68639   0.05041   0.11722   0.00000  Uiso   1.00
H367   H     0.56191  -0.03009   0.17724   0.00000  Uiso   1.00
H368   H     0.81659   0.23497   0.27276   0.00000  Uiso   1.00
H369   H     0.84226   0.18325   0.20654   0.00000  Uiso   1.00
H370   H     0.78556   0.10587   0.29153   0.00000  Uiso   1.00
H371   H     0.59516   0.19680   0.14349   0.00000  Uiso   1.00
H372   H     0.70941   0.22499   0.09982   0.00000  Uiso   1.00
H373   H     0.70923   0.28642   0.16768   0.00000  Uiso   1.00
H374   H     0.87246   0.15146   0.83676   0.00000  Uiso   1.00
H375   H     0.96727   0.16267   0.89691   0.00000  Uiso   1.00
H376   H     0.95242   0.25924   0.87210   0.00000  Uiso   1.00
H377   H     0.72152  -0.02602   0.01906   0.00000  Uiso   1.00
H378   H     0.81903   0.03340   0.07045   0.00000  Uiso   1.00
H379   H     0.83411  -0.00678  -0.01274   0.00000  Uiso   1.00
H380   H     0.91078   0.29910  -0.00072   0.00000  Uiso   1.00
H381   H     0.94789   0.22252   0.04626   0.00000  Uiso   1.00
H382   H     0.83029   0.20174   0.07534   0.00000  Uiso   1.00
H383   H     0.81306   0.13791   0.42847   0.00000  Uiso   1.00
H384   H     0.78336   0.02030   0.41214   0.00000  Uiso   1.00
H385   H     0.90611   0.13587   0.39245   0.00000  Uiso   1.00
H386   H     0.99946   0.20798   0.58060   0.00000  Uiso   1.00
H387   H     0.90669   0.21864   0.53433   0.00000  Uiso   1.00
H388   H     1.01677   0.24151   0.48289   0.00000  Uiso   1.00
H389   H     1.05815   1.11106   0.48440   0.00000  Uiso   1.00
H390   H     0.95634   0.98812   0.45824   0.00000  Uiso   1.00
H391   H     0.99402   1.01117   0.54738   0.00000  Uiso   1.00
H392   H     0.60058  -0.07549   0.38211   0.00000  Uiso   1.00
H393   H     0.60829  -0.07808   0.48015   0.00000  Uiso   1.00
H394   H     0.63986   0.03806   0.42222   0.00000  Uiso   1.00
H395   H     0.51815   0.08113   0.57799   0.00000  Uiso   1.00
H396   H     0.60871   0.04690   0.56813   0.00000  Uiso   1.00
H397   H     0.58698   0.11730   0.49466   0.00000  Uiso   1.00
H398   H     0.82867   0.22487   0.64160   0.00000  Uiso   1.00
H399   H     0.75257   0.10405   0.62767   0.00000  Uiso   1.00
H400   H     0.72513   0.14580   0.69989   0.00000  Uiso   1.00
H401   H     0.76570   0.35929   0.49465   0.00000  Uiso   1.00
H402   H     0.73913   0.26261   0.45211   0.00000  Uiso   1.00
H403   H     0.84063   0.30728   0.50868   0.00000  Uiso   1.00
H404   H     1.00276   0.17717   0.73441   0.00000  Uiso   1.00
H405   H     0.93797   0.10512   0.67586   0.00000  Uiso   1.00
H406   H     1.06049   0.14133   0.66867   0.00000  Uiso   1.00
H407   H     1.02651  -0.02318   0.88239   0.00000  Uiso   1.00
H408   H     1.05159   0.08969   0.86260   0.00000  Uiso   1.00
H409   H     1.12799   0.05867   0.81857   0.00000  Uiso   1.00
H410   H     0.81069   0.88984   0.83047   0.00000  Uiso   1.00
H411   H     0.79340   0.97794   0.77028   0.00000  Uiso   1.00
H412   H     0.84790   1.01119   0.85002   0.00000  Uiso   1.00
H413   H     0.66823   0.44315   0.26931   0.00000  Uiso   1.00
H414   H     0.58328   0.40745   0.34016   0.00000  Uiso   1.00
H415   H     0.63653   0.52478   0.29458   0.00000  Uiso   1.00
H416   H     0.61779   0.57073   0.14208   0.00000  Uiso   1.00
H417   H     0.52684   0.48348   0.09273   0.00000  Uiso   1.00
H418   H     0.63060   0.46877   0.12533   0.00000  Uiso   1.00
H419   H     0.40308   0.28646   0.16495   0.00000  Uiso   1.00
H420   H     0.41435   0.24729   0.24758   0.00000  Uiso   1.00
H421   H     0.51613   0.29708   0.17984   0.00000  Uiso   1.00
H422   H     0.96418   0.30870   0.76432   0.00000  Uiso   1.00
H423   H     0.93471   0.37239   0.69225   0.00000  Uiso   1.00
H424   H     0.84001   0.25713   0.75524   0.00000  Uiso   1.00
H425   H     0.78512   0.51841   0.96398   0.00000  Uiso   1.00
H426   H     0.72939   0.39809   0.94706   0.00000  Uiso   1.00
H427   H     0.66079   0.44542   0.98734   0.00000  Uiso   1.00
H428   H     0.53828   0.46352   0.92190   0.00000  Uiso   1.00
H429   H     0.57686   0.54848   0.83643   0.00000  Uiso   1.00
H430   H     0.63484   0.58611   0.91714   0.00000  Uiso   1.00
H431   H     0.71305   0.41674   0.64715   0.00000  Uiso   1.00
H432   H     0.80572   0.39793   0.61364   0.00000  Uiso   1.00
H433   H     0.79823   0.49719   0.57375   0.00000  Uiso   1.00
loop_
_geom_bond_atom_site_label_1
_geom_bond_atom_site_label_2
_geom_bond_distance
_geom_bond_site_symmetry_2
_ccdc_geom_bond_type
Si1    O53     1.641   .     S
Si1    C99     1.843   .     S
Si1    O82     1.628   1_545 S
Si1    O86     1.623   1_545 S
Si2    C52     1.956   .     S
Si2    O53     1.617   .     S
Si2    C54     1.779   .     S
Si2    C55     1.745   .     S
Si3    C56     1.867   .     S
Si3    C57     1.852   .     S
Si3    O90     1.619   1_545 S
Si3    O94     1.554   1_545 S
Si4    C58     1.813   .     S
Si4    C59     1.862   .     S
Si4    O62     1.623   .     S
Si4    O108    1.628   .     S
Si5    O65     1.614   .     S
Si5    O75     1.578   .     S
Si5    C60     1.875   1_455 S
Si5    C61     1.777   1_455 S
Si6    O62     1.600   .     S
Si6    O76     1.628   .     S
Si6    O70     1.632   1_554 S
Si6    O120    1.588   1_554 S
Si7    C63     1.885   .     S
Si7    O72     1.579   .     S
Si7    C64     1.872   1_455 S
Si7    O181    1.557   1_455 S
Si8    O65     1.632   .     S
Si8    C66     1.874   .     S
Si8    C67     1.889   .     S
Si8    O109    1.605   .     S
Si9    C68     1.873   .     S
Si9    C69     1.901   .     S
Si9    C73     1.850   .     S
Si9    O118    1.628   .     S
Si10   O70     1.612   .     S
Si10   O87     1.618   .     S
Si10   C71     1.819   1_455 S
Si10   O177    1.609   1_455 S
Si11   O72     1.572   .     S
Si11   C74     1.848   .     S
Si11   O88     1.590   .     S
Si11   O112    1.589   .     S
Si12   O75     1.549   .     S
Si12   O76     1.646   .     S
Si12   O80     1.654   .     S
Si12   O124    1.646   .     S
Si13   C77     1.886   .     S
Si13   O84     1.614   .     S
Si13   C78     1.872   1_455 S
Si13   C79     1.892   1_455 S
Si14   O80     1.614   .     S
Si14   C81     1.838   .     S
Si14   O89     1.603   1_554 S
Si14   O146    1.596   1_554 S
Si15   O82     1.599   .     S
Si15   O92     1.675   .     S
Si15   C83     1.805   1_455 S
Si15   O190    1.677   1_455 S
Si16   O84     1.639   .     S
Si16   C85     1.880   .     S
Si16   O86     1.624   .     S
Si16   O127    1.598   .     S
Si17   O87     1.635   .     S
Si17   O88     1.630   .     S
Si17   O93     1.581   .     S
Si17   O143    1.684   .     S
Si18   O89     1.641   .     S
Si18   O90     1.613   .     S
Si18   C91     1.937   1_455 S
Si18   O189    1.632   1_455 S
Si19   O92     1.635   .     S
Si19   O93     1.605   .     S
Si19   O94     1.592   .     S
Si19   O139    1.588   .     S
Si20   C95     1.844   .     S
Si20   C96     1.812   .     S
Si20   C97     1.869   1_554 S
Si20   O170    1.635   1_554 S
Si21   O104    1.598   .     S
Si21   C160    1.824   .     S
Si21   C98     1.843   1_545 S
Si21   O138    1.587   1_545 S
Si22   C100    1.836   .     S
Si22   C101    1.861   .     S
Si22   C102    1.886   .     S
Si22   O106    1.603   .     S
Si23   C103    1.890   .     S
Si23   O104    1.562   .     S
Si23   C105    1.817   .     S
Si23   O153    1.547   .     S
Si24   O107    1.592   .     S
Si24   O168    1.641   .     S
Si24   O145    1.671   1_545 S
Si24   O149    1.673   1_545 S
Si25   O106    1.616   .     S
Si25   O107    1.583   .     S
Si25   O116    1.606   .     S
Si25   O164    1.546   .     S
Si26   O108    1.604   .     S
Si26   O109    1.582   .     S
Si26   O113    1.583   .     S
Si26   O121    1.602   .     S
Si27   C110    1.791   .     S
Si27   C111    1.859   .     S
Si27   O112    1.610   .     S
Si27   C132    1.907   .     S
Si28   O113    1.567   .     S
Si28   C114    1.859   .     S
Si28   C134    1.949   .     S
Si28   O174    1.553   .     S
Si29   C115    1.899   .     S
Si29   O116    1.588   .     S
Si29   C117    1.811   .     S
Si29   O178    1.600   .     S
Si30   O118    1.640   .     S
Si30   C119    1.897   .     S
Si30   O120    1.615   .     S
Si30   O140    1.602   .     S
Si31   O121    1.614   .     S
Si31   C122    1.836   .     S
Si31   C123    1.836   .     S
Si31   C128    1.828   .     S
Si32   O124    1.626   .     S
Si32   C125    1.841   .     S
Si32   C126    1.868   .     S
Si32   O127    1.622   .     S
Si33   C129    1.919   .     S
Si33   C130    1.847   .     S
Si33   C131    1.847   1_554 S
Si33   O144    1.561   1_554 S
Si34   C133    1.803   .     S
Si34   C135    1.829   .     S
Si34   C136    1.807   .     S
Si34   O184    1.585   .     S
Si35   C137    1.781   .     S
Si35   O138    1.590   .     S
Si35   O139    1.637   .     S
Si35   O147    1.559   .     S
Si36   O140    1.612   .     S
Si36   C141    1.835   .     S
Si36   C142    1.825   .     S
Si36   O148    1.650   .     S
Si37   O143    1.629   .     S
Si37   O144    1.613   .     S
Si37   O145    1.664   .     S
Si37   O146    1.617   .     S
Si38   O147    1.599   .     S
Si38   O148    1.600   .     S
Si38   O149    1.654   .     S
Si38   O186    1.626   .     S
Si39   C150    1.842   .     S
Si39   C151    1.796   .     S
Si39   C152    1.958   .     S
Si39   O153    1.588   .     S
Si40   C155    1.891   .     S
Si40   C156    1.840   .     S
Si40   C154    1.879   1_554 S
Si40   O169    1.572   1_554 S
Si41   C157    1.869   .     S
Si41   C158    1.845   .     S
Si41   C159    1.893   1_545 S
Si41   O185    1.599   1_545 S
Si42   C161    1.808   .     S
Si42   C162    1.861   .     S
Si42   C163    1.937   .     S
Si42   O164    1.574   .     S
Si43   C165    1.849   .     S
Si43   C166    1.893   .     S
Si43   C167    1.820   1_545 S
Si43   O193    1.612   1_545 S
Si44   O168    1.658   .     S
Si44   O169    1.590   .     S
Si44   O170    1.600   .     S
Si44   O175    1.641   .     S
Si45   C171    1.877   .     S
Si45   C172    1.831   .     S
Si45   C173    1.877   .     S
Si45   O174    1.629   .     S
Si46   O175    1.629   .     S
Si46   C176    1.813   .     S
Si46   O177    1.613   .     S
Si46   O183    1.559   .     S
Si47   O178    1.595   .     S
Si47   C179    1.838   .     S
Si47   C180    1.812   .     S
Si47   O187    1.641   .     S
Si48   O181    1.595   .     S
Si48   C182    1.892   .     S
Si48   O183    1.643   .     S
Si48   O188    1.644   .     S
Si49   O184    1.566   .     S
Si49   O185    1.612   .     S
Si49   O186    1.660   .     S
Si49   O191    1.638   .     S
Si50   O187    1.576   .     S
Si50   O188    1.578   .     S
Si50   O189    1.632   .     S
Si50   O192    1.620   .     S
Si51   O190    1.692   .     S
Si51   O191    1.634   .     S
Si51   O192    1.598   .     S
Si51   O193    1.607   .     S
C52    H194    1.088   .     S
C52    H195    1.054   .     S
C52    H196    1.070   .     S
C54    H197    1.092   .     S
C54    H198    1.114   .     S
C54    H199    1.103   .     S
C55    H200    1.113   .     S
C55    H201    1.096   .     S
C55    H202    1.119   .     S
C56    H203    1.156   .     S
C56    H204    1.087   .     S
C56    H205    1.109   .     S
C57    H206    1.042   .     S
C57    H207    1.130   .     S
C57    H208    1.111   .     S
C58    H209    1.157   .     S
C58    H210    1.135   .     S
C58    H211    1.072   .     S
C59    H212    1.079   .     S
C59    H213    1.071   .     S
C59    H214    1.063   .     S
C60    H215    1.082   .     S
C60    H216    1.070   .     S
C60    H217    1.094   .     S
C60    Si5     1.875   1_655 S
C61    H218    1.121   .     S
C61    H219    1.112   .     S
C61    H220    1.096   .     S
C61    Si5     1.777   1_655 S
C63    H221    1.117   .     S
C63    H222    1.067   .     S
C63    H223    1.072   .     S
C64    H224    1.071   .     S
C64    H225    1.114   .     S
C64    H226    1.106   .     S
C64    Si7     1.872   1_655 S
C66    H227    1.034   .     S
C66    H228    1.117   .     S
C66    H229    1.089   .     S
C67    H230    1.119   .     S
C67    H231    1.074   .     S
C67    H232    1.120   .     S
C68    H233    1.127   .     S
C68    H234    1.107   .     S
C68    H235    1.095   .     S
C69    H236    1.100   .     S
C69    H237    1.097   .     S
C69    H238    1.139   .     S
O70    Si6     1.632   1_556 S
C71    H239    1.111   .     S
C71    H240    1.137   .     S
C71    H241    1.040   .     S
C71    Si10    1.819   1_655 S
C73    H242    1.182   .     S
C73    H243    1.091   .     S
C73    H244    1.080   .     S
C74    H245    1.089   .     S
C74    H246    1.133   .     S
C74    H247    1.100   .     S
C77    H248    1.100   .     S
C77    H249    1.141   .     S
C77    H250    1.108   .     S
C78    H251    1.093   .     S
C78    H252    1.086   .     S
C78    H253    1.179   .     S
C78    Si13    1.872   1_655 S
C79    H254    1.084   .     S
C79    H255    1.111   .     S
C79    H256    1.057   .     S
C79    Si13    1.892   1_655 S
C81    H257    1.080   .     S
C81    H258    1.133   .     S
C81    H259    1.117   .     S
O82    Si1     1.628   1_565 S
C83    H260    1.102   .     S
C83    H261    1.096   .     S
C83    H262    1.103   .     S
C83    Si15    1.805   1_655 S
C85    H263    1.098   .     S
C85    H264    1.142   .     S
C85    H265    1.120   .     S
O86    Si1     1.623   1_565 S
O89    Si14    1.603   1_556 S
O90    Si3     1.619   1_565 S
C91    H266    1.147   .     S
C91    H267    1.148   .     S
C91    H268    1.130   .     S
C91    Si18    1.937   1_655 S
O94    Si3     1.554   1_565 S
C95    H269    1.067   .     S
C95    H270    1.112   .     S
C95    H271    1.068   .     S
C96    H272    1.077   .     S
C96    H273    1.115   .     S
C96    H274    1.060   .     S
C97    H275    1.131   .     S
C97    H276    1.054   .     S
C97    H277    1.084   .     S
C97    Si20    1.869   1_556 S
C98    H278    1.141   .     S
C98    H279    1.085   .     S
C98    H280    1.127   .     S
C98    Si21    1.843   1_565 S
C99    H281    1.085   .     S
C99    H282    1.105   .     S
C99    H283    1.114   .     S
C100   H284    1.142   .     S
C100   H285    1.112   .     S
C100   H286    1.124   .     S
C101   H287    1.153   .     S
C101   H288    1.089   .     S
C101   H289    1.062   .     S
C102   H290    1.088   .     S
C102   H291    1.095   .     S
C102   H292    1.074   .     S
C103   H293    1.135   .     S
C103   H294    1.105   .     S
C103   H295    1.087   .     S
C105   H296    1.099   .     S
C105   H297    1.156   .     S
C105   H298    1.126   .     S
C110   H299    1.086   .     S
C110   H300    1.048   .     S
C110   H301    1.084   .     S
C111   H302    1.143   .     S
C111   H303    1.111   .     S
C111   H304    1.049   .     S
C114   H305    1.050   .     S
C114   H306    1.071   .     S
C114   H307    1.054   .     S
C115   H308    1.104   .     S
C115   H309    1.092   .     S
C115   H310    1.111   .     S
C117   H311    1.106   .     S
C117   H312    1.088   .     S
C117   H313    1.077   .     S
C119   H314    1.045   .     S
C119   H315    1.094   .     S
C119   H316    1.109   .     S
O120   Si6     1.588   1_556 S
C122   H317    1.124   .     S
C122   H318    1.171   .     S
C122   H319    1.078   .     S
C123   H320    1.053   .     S
C123   H321    1.113   .     S
C123   H322    1.076   .     S
C125   H323    1.071   .     S
C125   H324    1.087   .     S
C125   H325    1.119   .     S
C126   H326    1.100   .     S
C126   H327    1.124   .     S
C126   H328    1.113   .     S
C128   H329    1.122   .     S
C128   H330    1.156   .     S
C128   H331    1.117   .     S
C129   H332    1.087   .     S
C129   H333    1.110   .     S
C129   H334    1.090   .     S
C130   H335    1.089   .     S
C130   H336    1.083   .     S
C130   H337    1.106   .     S
C131   H338    1.078   .     S
C131   H339    1.061   .     S
C131   H340    1.094   .     S
C131   Si33    1.847   1_556 S
C132   H341    1.110   .     S
C132   H342    1.142   .     S
C132   H343    1.061   .     S
C133   H344    1.091   .     S
C133   H345    1.127   .     S
C133   H346    1.084   .     S
C134   H347    1.121   .     S
C134   H348    1.132   .     S
C134   H349    1.107   .     S
C135   H350    1.174   .     S
C135   H351    1.113   .     S
C135   H352    1.054   .     S
C136   H353    1.105   .     S
C136   H354    1.120   .     S
C136   H355    1.167   .     S
C137   H356    1.119   .     S
C137   H357    1.082   .     S
C137   H358    1.130   .     S
O138   Si21    1.587   1_565 S
C141   H359    1.106   .     S
C141   H360    1.101   .     S
C141   H361    1.133   .     S
C142   H362    1.062   .     S
C142   H363    1.147   .     S
C142   H364    1.154   .     S
O144   Si33    1.561   1_556 S
O145   Si24    1.671   1_565 S
O146   Si14    1.596   1_556 S
O149   Si24    1.673   1_565 S
C150   H365    1.128   .     S
C150   H366    1.150   .     S
C150   H367    1.126   .     S
C151   H368    1.129   .     S
C151   H369    1.140   .     S
C151   H370    1.120   .     S
C152   H371    1.114   .     S
C152   H372    1.101   .     S
C152   H373    1.075   .     S
C154   H374    1.122   .     S
C154   H375    1.071   .     S
C154   H376    1.122   .     S
C154   Si40    1.879   1_556 S
C155   H377    1.055   .     S
C155   H378    1.134   .     S
C155   H379    1.123   .     S
C156   H380    1.112   .     S
C156   H381    1.181   .     S
C156   H382    1.142   .     S
C157   H383    1.069   .     S
C157   H384    1.147   .     S
C157   H385    1.108   .     S
C158   H386    1.090   .     S
C158   H387    1.102   .     S
C158   H388    1.147   .     S
C159   H389    1.133   .     S
C159   H390    1.165   .     S
C159   H391    1.080   .     S
C159   Si41    1.893   1_565 S
C160   H392    1.130   .     S
C160   H393    1.128   .     S
C160   H394    1.194   .     S
C161   H395    1.139   .     S
C161   H396    1.080   .     S
C161   H397    1.115   .     S
C162   H398    1.080   .     S
C162   H399    1.091   .     S
C162   H400    1.118   .     S
C163   H401    1.103   .     S
C163   H402    1.122   .     S
C163   H403    1.098   .     S
C165   H404    1.152   .     S
C165   H405    1.041   .     S
C165   H406    1.077   .     S
C166   H407    1.110   .     S
C166   H408    1.111   .     S
C166   H409    1.124   .     S
C167   H410    1.160   .     S
C167   H411    1.126   .     S
C167   H412    1.130   .     S
C167   Si43    1.820   1_565 S
O169   Si40    1.572   1_556 S
O170   Si20    1.635   1_556 S
C171   H413    1.121   .     S
C171   H414    1.089   .     S
C171   H415    1.087   .     S
C172   H416    1.155   .     S
C172   H417    1.090   .     S
C172   H418    1.168   .     S
C173   H419    1.079   .     S
C173   H420    1.073   .     S
C173   H421    1.100   .     S
C176   H422    1.076   .     S
C176   H423    1.167   .     S
C176   H424    1.094   .     S
O177   Si10    1.609   1_655 S
C179   H425    1.131   .     S
C179   H426    1.113   .     S
C179   H427    1.090   .     S
C180   H428    1.087   .     S
C180   H429    1.129   .     S
C180   H430    1.097   .     S
O181   Si7     1.557   1_655 S
C182   H431    1.125   .     S
C182   H432    1.109   .     S
C182   H433    1.083   .     S
O185   Si41    1.599   1_565 S
O189   Si18    1.632   1_655 S
O190   Si15    1.677   1_655 S
O193   Si43    1.612   1_565 S
