data_333-13-11-12-15-30-1
_audit_creation_date              2025-03-07
_audit_creation_method            'Materials Studio'
_symmetry_space_group_name_H-M    'P1'
_symmetry_Int_Tables_number       1
_symmetry_cell_setting            triclinic
loop_
_symmetry_equiv_pos_as_xyz
  x,y,z
_cell_length_a                    16.2973
_cell_length_b                    15.9188
_cell_length_c                    19.5815
_cell_angle_alpha                 86.5321
_cell_angle_beta                  93.2765
_cell_angle_gamma                 117.4646
loop_
_atom_site_label
_atom_site_type_symbol
_atom_site_fract_x
_atom_site_fract_y
_atom_site_fract_z
_atom_site_U_iso_or_equiv
_atom_site_adp_type
_atom_site_occupancy
Si1    Si    0.08757  -0.00642   0.11985   0.00000  Uiso   1.00
Si2    Si   -0.00947   0.20086   0.21491   0.00000  Uiso   1.00
Si3    Si    0.13596   0.18561   0.03885   0.00000  Uiso   1.00
Si4    Si    0.13022   0.00356   0.40498   0.00000  Uiso   1.00
Si5    Si    0.00137   0.18331   0.52327   0.00000  Uiso   1.00
Si6    Si    0.11466   0.17174   0.32732   0.00000  Uiso   1.00
Si7    Si    0.06115   0.21485   0.90102   0.00000  Uiso   1.00
Si8    Si    0.14510   0.35004   0.12559   0.00000  Uiso   1.00
Si9    Si    0.12394   0.49181   0.02976   0.00000  Uiso   1.00
Si10   Si    0.14984   0.33140   0.42990   0.00000  Uiso   1.00
Si11   Si   -0.08120   0.55182   0.44963   0.00000  Uiso   1.00
Si12   Si    0.14805   0.49852   0.32643   0.00000  Uiso   1.00
Si13   Si    0.22788   0.35404   0.82460   0.00000  Uiso   1.00
Si14   Si   -0.03946   0.85356   0.23823   0.00000  Uiso   1.00
Si15   Si    0.08325   0.83524   0.04238   0.00000  Uiso   1.00
Si16   Si    0.12003   0.65750   0.39667   0.00000  Uiso   1.00
Si17   Si    0.13722   0.85022   0.31410   0.00000  Uiso   1.00
Si18   Si    0.43788  -0.01486   0.14962   0.00000  Uiso   1.00
Si19   Si    0.39819   0.11034   0.05127   0.00000  Uiso   1.00
Si20   Si    0.29943   0.07040   0.50434   0.00000  Uiso   1.00
Si21   Si    0.54422   0.17844   0.29427   0.00000  Uiso   1.00
Si22   Si    0.25817   0.13120   0.96194   0.00000  Uiso   1.00
Si23   Si    0.53895   0.04896   0.75263   0.00000  Uiso   1.00
Si24   Si    0.45119   0.31394   0.09874   0.00000  Uiso   1.00
Si25   Si    0.29350   0.49571   0.22305   0.00000  Uiso   1.00
Si26   Si    0.57474   0.66274   0.04588   0.00000  Uiso   1.00
Si27   Si    0.30758   0.42226   0.53976   0.00000  Uiso   1.00
Si28   Si    0.40801   0.45906   0.32734   0.00000  Uiso   1.00
Si29   Si    0.50932   0.48063   0.58319   0.00000  Uiso   1.00
Si30   Si    0.47634   0.67931   0.17098   0.00000  Uiso   1.00
Si31   Si    0.31210   0.85503   0.26181   0.00000  Uiso   1.00
Si32   Si    0.45611   0.83556   0.07508   0.00000  Uiso   1.00
Si33   Si    0.63882   0.83469   0.61749   0.00000  Uiso   1.00
Si34   Si    0.87364   0.05221   0.11872   0.00000  Uiso   1.00
Si35   Si    0.62682   0.15777   0.16713   0.00000  Uiso   1.00
Si36   Si    0.85330  -0.00385   0.45877   0.00000  Uiso   1.00
Si37   Si    0.73281   0.17619   0.69948   0.00000  Uiso   1.00
Si38   Si    0.81370   0.22057   0.24608   0.00000  Uiso   1.00
Si39   Si    0.97432   0.09523   0.76757   0.00000  Uiso   1.00
Si40   Si    0.92134   0.20723   0.65843   0.00000  Uiso   1.00
Si41   Si    0.69986   0.28530   0.03498   0.00000  Uiso   1.00
Si42   Si    0.63585   0.40726   0.52790   0.00000  Uiso   1.00
Si43   Si    0.97805   0.42128   0.63938   0.00000  Uiso   1.00
Si44   Si    0.83543   0.48638   0.59313   0.00000  Uiso   1.00
Si45   Si    0.83118   0.64787   0.19553   0.00000  Uiso   1.00
Si46   Si    0.61189   0.79817   0.28442   0.00000  Uiso   1.00
Si47   Si    0.83322   0.85984   0.58262   0.00000  Uiso   1.00
Si48   Si    0.81358   0.86285   0.33399   0.00000  Uiso   1.00
Si49   Si    0.80191   0.55709   0.72285   0.00000  Uiso   1.00
Si50   Si    0.80806   0.95190   0.84652   0.00000  Uiso   1.00
Si51   Si    0.98619   0.93925   0.69596   0.00000  Uiso   1.00
C52    C     0.20145   0.01890   0.16314   0.00000  Uiso   1.00
O53    O     0.09492   0.09627   0.09339   0.00000  Uiso   1.00
C54    C     0.04221   0.90944   0.45608   0.00000  Uiso   1.00
C55    C     0.07592   0.14751   0.57031   0.00000  Uiso   1.00
O56    O     0.02398   0.17017   0.28833   0.00000  Uiso   1.00
O57    O     0.09072   0.06945   0.36343   0.00000  Uiso   1.00
C58    C     0.20127   0.19515   0.26214   0.00000  Uiso   1.00
O59    O     0.06386   0.17290   0.97637   0.00000  Uiso   1.00
C60    C     0.98809   0.27617   0.89282   0.00000  Uiso   1.00
O61    O     0.08182   0.28874   0.18663   0.00000  Uiso   1.00
O62    O     0.16799   0.28339   0.07767   0.00000  Uiso   1.00
O63    O     0.09561   0.39687   0.07659   0.00000  Uiso   1.00
C64    C     0.16469   0.59019   0.09084   0.00000  Uiso   1.00
C65    C     0.02934   0.49808   0.97639   0.00000  Uiso   1.00
C66    C     0.21852   0.51270   0.97597   0.00000  Uiso   1.00
O67    O     0.06622   0.28200   0.48276   0.00000  Uiso   1.00
O68    O     0.15164   0.25720   0.38084   0.00000  Uiso   1.00
C69    C    -0.14326   0.42901   0.41872   0.00000  Uiso   1.00
C70    C     0.88249   0.63032   0.40300   0.00000  Uiso   1.00
C71    C     0.03911   0.44887   0.27757   0.00000  Uiso   1.00
O72    O     0.14194   0.42259   0.38959   0.00000  Uiso   1.00
O73    O     0.16522   0.29128   0.88527   0.00000  Uiso   1.00
C74    C     0.24056   0.27272   0.76580   0.00000  Uiso   1.00
C75    C     0.17091   0.41911   0.77452   0.00000  Uiso   1.00
C76    C     0.33860   0.44501   0.85386   0.00000  Uiso   1.00
O77    O     0.00855   0.94484   0.17999   0.00000  Uiso   1.00
C78    C     0.07575   0.76418   0.12298   0.00000  Uiso   1.00
O79    O     0.07320   0.92407   0.06032   0.00000  Uiso   1.00
C80    C    -0.01439   0.76537   0.98377   0.00000  Uiso   1.00
C81    C     0.19771   0.86554   1.00345   0.00000  Uiso   1.00
O82    O     0.02653   0.58860   0.43725   0.00000  Uiso   1.00
O83    O     0.16240   0.59948   0.35349   0.00000  Uiso   1.00
C84    C     0.20549   0.70670   0.47293   0.00000  Uiso   1.00
O85    O     0.04582   0.83267   0.26916   0.00000  Uiso   1.00
O86    O     0.10878   0.74507   0.35526   0.00000  Uiso   1.00
O87    O     0.16041   0.94245   0.35691   0.00000  Uiso   1.00
O88    O     0.38957   0.04200   0.11311   0.00000  Uiso   1.00
C89    C     0.47086   0.09758   0.99206   0.00000  Uiso   1.00
O90    O     0.21535   0.06611   0.45386   0.00000  Uiso   1.00
C91    C     0.39783   0.08339   0.45571   0.00000  Uiso   1.00
C92    C     0.33084   0.16525   0.56904   0.00000  Uiso   1.00
C93    C     0.42128   0.13626   0.26871   0.00000  Uiso   1.00
C94    C     0.56531   0.09163   0.34725   0.00000  Uiso   1.00
C95    C     0.59734   0.29125   0.33960   0.00000  Uiso   1.00
C96    C     0.16379   0.04770   0.90351   0.00000  Uiso   1.00
O97    O     0.30269   0.08760   1.01332   0.00000  Uiso   1.00
C98    C     0.35595   0.21239   0.90933   0.00000  Uiso   1.00
O99    O     0.22402   0.18944   1.00565   0.00000  Uiso   1.00
C100   C     0.25780  -0.04442   0.55840   0.00000  Uiso   1.00
C101   C     0.45567  -0.01160   0.68170   0.00000  Uiso   1.00
C102   C     0.51239  -0.04127   0.82462   0.00000  Uiso   1.00
C103   C     0.52970   0.15056   0.78987   0.00000  Uiso   1.00
C104   C     0.36100   0.29728   0.15906   0.00000  Uiso   1.00
O105   O     0.44649   0.21770   0.07397   0.00000  Uiso   1.00
C106   C     0.55917   0.36570   0.15296   0.00000  Uiso   1.00
O107   O     0.23639   0.42845   0.15820   0.00000  Uiso   1.00
O108   O     0.22829   0.51742   0.27301   0.00000  Uiso   1.00
C109   C     0.43511   0.38714   0.02654   0.00000  Uiso   1.00
C110   C     0.62313   0.58219   0.02502   0.00000  Uiso   1.00
C111   C     0.49651   0.65684   0.96578   0.00000  Uiso   1.00
C112   C     0.68082   0.77608   1.05286   0.00000  Uiso   1.00
O113   O     0.24979   0.37437   0.47060   0.00000  Uiso   1.00
C114   C     0.31255   0.54145   0.54488   0.00000  Uiso   1.00
C115   C     0.24647   0.35364   0.61497   0.00000  Uiso   1.00
O116   O     0.33285   0.43609   0.26923   0.00000  Uiso   1.00
C117   C     0.38920   0.34719   0.38090   0.00000  Uiso   1.00
C118   C     0.40308   0.55007   0.38135   0.00000  Uiso   1.00
C119   C     0.51806   0.50142   0.28414   0.00000  Uiso   1.00
O120   O     0.41034   0.42925   0.54262   0.00000  Uiso   1.00
C121   C     0.48751   0.47001   0.67947   0.00000  Uiso   1.00
C122   C     0.57286   0.60583   0.54752   0.00000  Uiso   1.00
O123   O     0.37427   0.59762   0.19612   0.00000  Uiso   1.00
O124   O     0.51604   0.63680   0.11497   0.00000  Uiso   1.00
C125   C     0.25859   0.74464   0.21482   0.00000  Uiso   1.00
C126   C     0.36054   0.82668   0.34554   0.00000  Uiso   1.00
O127   O     0.38877   0.94338   0.21754   0.00000  Uiso   1.00
O128   O     0.22593   0.87620   0.26995   0.00000  Uiso   1.00
O129   O     0.46999   0.77037   0.13562   0.00000  Uiso   1.00
O130   O     0.42019   0.89850   0.10418   0.00000  Uiso   1.00
C131   C     0.36616   0.75974   1.01175   0.00000  Uiso   1.00
C132   C     0.54441   0.83253   0.55591   0.00000  Uiso   1.00
C133   C     0.57435   0.73916   0.68491   0.00000  Uiso   1.00
C134   C     0.68999   0.94915   0.66192   0.00000  Uiso   1.00
C135   C     0.85658   0.13563   0.05778   0.00000  Uiso   1.00
O136   O     0.95831   0.11526   0.16682   0.00000  Uiso   1.00
C137   C     0.87805   0.96634   0.06187   0.00000  Uiso   1.00
O138   O     0.54709   0.05420   0.15768   0.00000  Uiso   1.00
O139   O     0.59638   0.20268   0.22450   0.00000  Uiso   1.00
O140   O     0.93500   0.10137   0.46884   0.00000  Uiso   1.00
C141   C     0.69267   0.21714   0.61852   0.00000  Uiso   1.00
C142   C     0.78893   0.26961   0.76725   0.00000  Uiso   1.00
O143   O     0.64704   0.08954   0.73363   0.00000  Uiso   1.00
O144   O     0.91210   0.23564   0.21997   0.00000  Uiso   1.00
O145   O     0.72946   0.16558   0.19408   0.00000  Uiso   1.00
C146   C     0.74182  -0.00510   0.47538   0.00000  Uiso   1.00
C147   C     0.79872   0.16458   0.33161   0.00000  Uiso   1.00
C148   C     0.81716   0.33899   0.25263   0.00000  Uiso   1.00
O149   O     1.02556   0.13770   0.84008   0.00000  Uiso   1.00
O150   O     0.94099   0.20116   0.57968   0.00000  Uiso   1.00
O151   O     0.81543   0.15498   0.67697   0.00000  Uiso   1.00
O152   O     0.97725   0.17123   0.70872   0.00000  Uiso   1.00
O153   O     0.64107   0.21881   0.09556   0.00000  Uiso   1.00
C154   C     0.72024   0.22096  -0.03457   0.00000  Uiso   1.00
C155   C     0.64335   0.35006  -0.01773   0.00000  Uiso   1.00
C156   C     0.80960   0.38488   0.06990   0.00000  Uiso   1.00
C157   C     0.56201   0.28259   0.50231   0.00000  Uiso   1.00
C158   C     0.66932   0.49200   0.45267   0.00000  Uiso   1.00
O159   O     0.57154   0.43186   0.57606   0.00000  Uiso   1.00
C160   C     1.06496   0.52700   0.68368   0.00000  Uiso   1.00
O161   O     0.96093   0.31944   0.67364   0.00000  Uiso   1.00
C162   C     1.02376   0.42372   0.55301   0.00000  Uiso   1.00
O163   O     0.89884   0.55325   0.53054   0.00000  Uiso   1.00
O164   O     0.73027   0.41929   0.56598   0.00000  Uiso   1.00
O165   O     0.88351   0.42267   0.62596   0.00000  Uiso   1.00
C166   C     0.71662   0.59491   0.22588   0.00000  Uiso   1.00
C167   C     0.90818   0.59874   0.24073   0.00000  Uiso   1.00
C168   C     0.82330   0.61360   0.10456   0.00000  Uiso   1.00
O169   O     0.88501   0.76304   0.19789   0.00000  Uiso   1.00
O170   O     0.55023   0.71409   0.23587   0.00000  Uiso   1.00
C171   C     0.59720   0.89998   0.25214   0.00000  Uiso   1.00
C172   C     0.77477   0.99820   0.17353   0.00000  Uiso   1.00
C173   C     0.56638   0.77609   0.37004   0.00000  Uiso   1.00
C174   C     0.85825   0.75840   0.56919   0.00000  Uiso   1.00
O175   O     0.86834   0.92667   0.51548   0.00000  Uiso   1.00
O176   O     0.72404   0.82443   0.58616   0.00000  Uiso   1.00
O177   O     0.90520   0.87607   0.29420   0.00000  Uiso   1.00
O178   O     0.72267   0.83357   0.28788   0.00000  Uiso   1.00
C179   C     0.77876   0.76908   0.39885   0.00000  Uiso   1.00
O180   O     0.83649   0.95123   0.38195   0.00000  Uiso   1.00
C181   C     0.70019   0.43878   0.74742   0.00000  Uiso   1.00
O182   O     0.83568   0.55126   0.64985   0.00000  Uiso   1.00
C183   C     0.89230   0.56861   0.78997   0.00000  Uiso   1.00
C184   C     0.72147   0.83306   0.82330   0.00000  Uiso   1.00
C185   C     0.88829   0.93196   0.90542   0.00000  Uiso   1.00
O186   O     0.87009   1.01763   0.78525   0.00000  Uiso   1.00
C187   C     0.75217   1.01386   0.88506   0.00000  Uiso   1.00
C188   C     0.55966   0.92068   1.03150   0.00000  Uiso   1.00
C189   C     1.09013   0.95568   0.64509   0.00000  Uiso   1.00
O190   O     0.88903   0.91240   0.65164   0.00000  Uiso   1.00
C191   C     0.75032   0.64267   0.72311   0.00000  Uiso   1.00
C192   C     0.98260   0.85452   0.76530   0.00000  Uiso   1.00
O193   O     1.01772   1.03614   0.73466   0.00000  Uiso   1.00
H194   H     0.25994   0.08746   0.14513   0.00000  Uiso   1.00
H195   H     0.21940  -0.03810   0.15383   0.00000  Uiso   1.00
H196   H     0.19076   0.01036   0.22046   0.00000  Uiso   1.00
H197   H     0.05191   0.84441   0.46906   0.00000  Uiso   1.00
H198   H    -0.01799   0.89462   0.42819   0.00000  Uiso   1.00
H199   H     0.03503   0.93440   0.50700   0.00000  Uiso   1.00
H200   H     0.03222   0.07179   0.57164   0.00000  Uiso   1.00
H201   H     0.08920   0.16960   0.62556   0.00000  Uiso   1.00
H202   H     0.14354   0.17371   0.54228   0.00000  Uiso   1.00
H203   H     0.17718   0.15174   0.21413   0.00000  Uiso   1.00
H204   H     0.25641   0.17978   0.28937   0.00000  Uiso   1.00
H205   H     0.22460   0.26787   0.24673   0.00000  Uiso   1.00
H206   H     1.00195   0.33075   0.92977   0.00000  Uiso   1.00
H207   H     0.92205   0.21483   0.90008   0.00000  Uiso   1.00
H208   H     0.98492   0.30330   0.83768   0.00000  Uiso   1.00
H209   H     0.18397   0.65943   0.06556   0.00000  Uiso   1.00
H210   H     0.22589   0.59308   0.11735   0.00000  Uiso   1.00
H211   H     0.11176   0.58267   0.12654   0.00000  Uiso   1.00
H212   H    -0.03597   0.43499   0.98699   0.00000  Uiso   1.00
H213   H     0.04763   0.49367   0.92098   0.00000  Uiso   1.00
H214   H     0.03126   0.56941   0.98574   0.00000  Uiso   1.00
H215   H     0.24614   0.58242   0.94835   0.00000  Uiso   1.00
H216   H     0.18546   0.45452   0.93628   0.00000  Uiso   1.00
H217   H     0.27163   0.49382   0.99912   0.00000  Uiso   1.00
H218   H    -0.18879   0.39113   0.46211   0.00000  Uiso   1.00
H219   H    -0.09468   0.39815   0.41327   0.00000  Uiso   1.00
H220   H    -0.18731   0.42892   0.37357   0.00000  Uiso   1.00
H221   H     0.82223   0.60093   0.36907   0.00000  Uiso   1.00
H222   H     0.94182   0.69359   0.37805   0.00000  Uiso   1.00
H223   H     0.85687   0.65146   0.44608   0.00000  Uiso   1.00
H224   H    -0.00369   0.37343   0.29237   0.00000  Uiso   1.00
H225   H     0.06167   0.45763   0.22176   0.00000  Uiso   1.00
H226   H     0.00471   0.49358   0.27745   0.00000  Uiso   1.00
H227   H     0.17853   0.24831   0.73218   0.00000  Uiso   1.00
H228   H     0.22652   0.21023   0.78851   0.00000  Uiso   1.00
H229   H     0.31404   0.30494   0.73861   0.00000  Uiso   1.00
H230   H     0.15141   0.45822   0.80913   0.00000  Uiso   1.00
H231   H     0.11546   0.36801   0.74200   0.00000  Uiso   1.00
H232   H     0.22320   0.47464   0.74257   0.00000  Uiso   1.00
H233   H     0.33223   0.47389   0.90113   0.00000  Uiso   1.00
H234   H     0.37321   0.49590   0.81289   0.00000  Uiso   1.00
H235   H     0.38731   0.41637   0.86339   0.00000  Uiso   1.00
H236   H     0.14629   0.79653   0.14920   0.00000  Uiso   1.00
H237   H     0.05102   0.69704   0.10630   0.00000  Uiso   1.00
H238   H     0.02266   0.76247   0.15363   0.00000  Uiso   1.00
H239   H    -0.07852   0.77386   0.98650   0.00000  Uiso   1.00
H240   H    -0.03543   0.68797   0.99231   0.00000  Uiso   1.00
H241   H     0.01100   0.78838   0.92896   0.00000  Uiso   1.00
H242   H     0.25178   0.87394   1.04382   0.00000  Uiso   1.00
H243   H     0.21092   0.92375   0.96773   0.00000  Uiso   1.00
H244   H     0.19404   0.81147   0.97151   0.00000  Uiso   1.00
H245   H     0.20950   0.77330   0.48760   0.00000  Uiso   1.00
H246   H     0.27473   0.70827   0.46854   0.00000  Uiso   1.00
H247   H     0.17389   0.65033   0.51387   0.00000  Uiso   1.00
H248   H     0.49672   0.15765   0.95281   0.00000  Uiso   1.00
H249   H     0.43593   0.02805   0.96215   0.00000  Uiso   1.00
H250   H     0.53480   0.10267   1.01694   0.00000  Uiso   1.00
H251   H     0.42669   0.15188   0.43179   0.00000  Uiso   1.00
H252   H     0.37553   0.02582   0.41831   0.00000  Uiso   1.00
H253   H     0.44674   0.07076   0.48997   0.00000  Uiso   1.00
H254   H     0.35353   0.23779   0.54960   0.00000  Uiso   1.00
H255   H     0.39192   0.16802   0.59990   0.00000  Uiso   1.00
H256   H     0.26611   0.14508   0.60044   0.00000  Uiso   1.00
H257   H     0.41444   0.13996   0.21175   0.00000  Uiso   1.00
H258   H     0.40196   0.19434   0.28565   0.00000  Uiso   1.00
H259   H     0.37563   0.06227   0.28754   0.00000  Uiso   1.00
H260   H     0.60607   0.06579   0.31934   0.00000  Uiso   1.00
H261   H     0.50064   0.02407   0.35097   0.00000  Uiso   1.00
H262   H     0.59879   0.11850   0.39518   0.00000  Uiso   1.00
H263   H     0.62566   0.35450   0.30706   0.00000  Uiso   1.00
H264   H     0.65562   0.29064   0.37421   0.00000  Uiso   1.00
H265   H     0.54224   0.28929   0.36729   0.00000  Uiso   1.00
H266   H     0.18330   0.00211   0.87599   0.00000  Uiso   1.00
H267   H     0.15472   0.09350   0.86783   0.00000  Uiso   1.00
H268   H     0.09897   0.00600   0.92845   0.00000  Uiso   1.00
H269   H     0.36212   0.16684   0.87261   0.00000  Uiso   1.00
H270   H     0.42312   0.24764   0.93946   0.00000  Uiso   1.00
H271   H     0.33937   0.26954   0.88483   0.00000  Uiso   1.00
H272   H     0.30799  -0.07631   0.55308   0.00000  Uiso   1.00
H273   H     0.18891  -0.10293   0.53342   0.00000  Uiso   1.00
H274   H     0.25317  -0.03828   0.61163   0.00000  Uiso   1.00
H275   H     0.45959   0.03492   0.63493   0.00000  Uiso   1.00
H276   H     0.38530  -0.04615   0.70062   0.00000  Uiso   1.00
H277   H     0.47161  -0.06777   0.66322   0.00000  Uiso   1.00
H278   H     0.54069  -0.08868   0.81365   0.00000  Uiso   1.00
H279   H     0.43927  -0.08578   0.83446   0.00000  Uiso   1.00
H280   H     0.55768   0.00359   0.87044   0.00000  Uiso   1.00
H281   H     0.57106   0.17090   0.83680   0.00000  Uiso   1.00
H282   H     0.46053   0.13190   0.80785   0.00000  Uiso   1.00
H283   H     0.55275   0.21713   0.75927   0.00000  Uiso   1.00
H284   H     0.29113   0.24549   0.13849   0.00000  Uiso   1.00
H285   H     0.37650   0.36637   0.17291   0.00000  Uiso   1.00
H286   H     0.37608   0.26282   0.20601   0.00000  Uiso   1.00
H287   H     0.57608   0.44119   0.16332   0.00000  Uiso   1.00
H288   H     0.62285   0.36539   0.13543   0.00000  Uiso   1.00
H289   H     0.53656   0.33187   0.20222   0.00000  Uiso   1.00
H290   H     0.36432   0.35128   0.00473   0.00000  Uiso   1.00
H291   H     0.47894   0.38418  -0.01292   0.00000  Uiso   1.00
H292   H     0.45093   0.45678   0.04137   0.00000  Uiso   1.00
H293   H     0.61273   0.52697   0.06429   0.00000  Uiso   1.00
H294   H     0.69252   0.62372   0.01222   0.00000  Uiso   1.00
H295   H     0.58198   0.53975  -0.01946   0.00000  Uiso   1.00
H296   H     0.51051   0.72944   0.95064   0.00000  Uiso   1.00
H297   H     0.42057   0.61343   0.97820   0.00000  Uiso   1.00
H298   H     0.51618   0.63144   0.91967   0.00000  Uiso   1.00
H299   H     0.67072   0.83631   1.06417   0.00000  Uiso   1.00
H300   H     0.71493   0.78842   1.00377   0.00000  Uiso   1.00
H301   H     0.72856   0.76951   1.09543   0.00000  Uiso   1.00
H302   H     0.24565   0.52747   0.56340   0.00000  Uiso   1.00
H303   H     0.32524   0.57658   0.49285   0.00000  Uiso   1.00
H304   H     0.36551   0.58348   0.57962   0.00000  Uiso   1.00
H305   H     0.25385   0.28692   0.62204   0.00000  Uiso   1.00
H306   H     0.17304   0.34186   0.60635   0.00000  Uiso   1.00
H307   H     0.26793   0.39744   0.66011   0.00000  Uiso   1.00
H308   H     0.42893   0.37119   0.43189   0.00000  Uiso   1.00
H309   H     0.41281   0.30542   0.35536   0.00000  Uiso   1.00
H310   H     0.31245   0.30988   0.39093   0.00000  Uiso   1.00
H311   H     0.39028   0.60582   0.35133   0.00000  Uiso   1.00
H312   H     0.45004   0.57230   0.42478   0.00000  Uiso   1.00
H313   H     0.33629   0.50837   0.40572   0.00000  Uiso   1.00
H314   H     0.54593   0.45237   0.29298   0.00000  Uiso   1.00
H315   H     0.56448   0.56824   0.30682   0.00000  Uiso   1.00
H316   H     0.50963   0.52099   0.23018   0.00000  Uiso   1.00
H317   H     0.45381   0.39836   0.69677   0.00000  Uiso   1.00
H318   H     0.43819   0.49794   0.68314   0.00000  Uiso   1.00
H319   H     0.54483   0.50810   0.71476   0.00000  Uiso   1.00
H320   H     0.58337   0.59591   0.49479   0.00000  Uiso   1.00
H321   H     0.64132   0.63938   0.57025   0.00000  Uiso   1.00
H322   H     0.53829   0.65287   0.54894   0.00000  Uiso   1.00
H323   H     0.18617   0.69543   0.22331   0.00000  Uiso   1.00
H324   H     0.29847   0.70099   0.22990   0.00000  Uiso   1.00
H325   H     0.26688   0.76605   0.16111   0.00000  Uiso   1.00
H326   H     0.32823   0.74825   0.35963   0.00000  Uiso   1.00
H327   H     0.33071   0.85000   0.38486   0.00000  Uiso   1.00
H328   H     0.43249   0.86206   0.35172   0.00000  Uiso   1.00
H329   H     0.30641   0.77008   1.00958   0.00000  Uiso   1.00
H330   H     0.34906   0.69047   1.02944   0.00000  Uiso   1.00
H331   H     0.40059   0.78144   0.95672   0.00000  Uiso   1.00
H332   H     0.51982   0.77274   0.52193   0.00000  Uiso   1.00
H333   H     0.56345   0.89846   0.52562   0.00000  Uiso   1.00
H334   H     0.48765   0.81945   0.58901   0.00000  Uiso   1.00
H335   H     0.53494   0.76575   0.71557   0.00000  Uiso   1.00
H336   H     0.62543   0.72147   0.71757   0.00000  Uiso   1.00
H337   H     0.51372   0.67690   0.66147   0.00000  Uiso   1.00
H338   H     0.76109   0.96389   0.67813   0.00000  Uiso   1.00
H339   H     0.65149   0.94212   0.70497   0.00000  Uiso   1.00
H340   H     0.67899   0.99924   0.62471   0.00000  Uiso   1.00
H341   H     0.89447   0.20795   0.07943   0.00000  Uiso   1.00
H342   H     0.78119   0.11286   0.05180   0.00000  Uiso   1.00
H343   H     0.88968   0.13904   0.00885   0.00000  Uiso   1.00
H344   H     0.82239   0.95302   0.02519   0.00000  Uiso   1.00
H345   H     0.86427   0.89847   0.09014   0.00000  Uiso   1.00
H346   H     0.94425   0.98714   0.03706   0.00000  Uiso   1.00
H347   H     0.64856   0.15274   0.59052   0.00000  Uiso   1.00
H348   H     0.74652   0.25875   0.58420   0.00000  Uiso   1.00
H349   H     0.66071   0.26502   0.63073   0.00000  Uiso   1.00
H350   H     0.83487   0.33723   0.73734   0.00000  Uiso   1.00
H351   H     0.82790   0.24794   0.80816   0.00000  Uiso   1.00
H352   H     0.73717   0.28336   0.79161   0.00000  Uiso   1.00
H353   H     0.76022   0.03850   0.51993   0.00000  Uiso   1.00
H354   H     0.70343  -0.07610   0.49430   0.00000  Uiso   1.00
H355   H     0.70916   0.01914   0.43613   0.00000  Uiso   1.00
H356   H     0.86625   0.19179   0.35883   0.00000  Uiso   1.00
H357   H     0.77140   0.09117   0.32552   0.00000  Uiso   1.00
H358   H     0.75361   0.18701   0.35489   0.00000  Uiso   1.00
H359   H     0.75046   0.33300   0.25185   0.00000  Uiso   1.00
H360   H     0.85794   0.37879   0.21070   0.00000  Uiso   1.00
H361   H     0.85529   0.36020   0.30132   0.00000  Uiso   1.00
H362   H     0.78887   0.21853  -0.02572   0.00000  Uiso   1.00
H363   H     0.72761   0.26263  -0.08291   0.00000  Uiso   1.00
H364   H     0.66290   0.15012  -0.04098   0.00000  Uiso   1.00
H365   H     0.68712   0.38871  -0.06142   0.00000  Uiso   1.00
H366   H     0.62878   0.39522   0.01598   0.00000  Uiso   1.00
H367   H     0.57811   0.29960  -0.04008   0.00000  Uiso   1.00
H368   H     0.86548   0.36454   0.08099   0.00000  Uiso   1.00
H369   H     0.79743   0.41267   0.11799   0.00000  Uiso   1.00
H370   H     0.82867   0.44658   0.03127   0.00000  Uiso   1.00
H371   H     0.52905   0.24239   0.55074   0.00000  Uiso   1.00
H372   H     0.59771   0.24412   0.48231   0.00000  Uiso   1.00
H373   H     0.50734   0.28478   0.46760   0.00000  Uiso   1.00
H374   H     0.61030   0.48499   0.42040   0.00000  Uiso   1.00
H375   H     0.70600   0.46583   0.42344   0.00000  Uiso   1.00
H376   H     0.70812   0.55796   0.47723   0.00000  Uiso   1.00
H377   H     1.04587   0.58403   0.66475   0.00000  Uiso   1.00
H378   H     1.13561   0.55186   0.66744   0.00000  Uiso   1.00
H379   H     1.06610   0.51964   0.74184   0.00000  Uiso   1.00
H380   H     1.06982   0.49609   0.52825   0.00000  Uiso   1.00
H381   H     0.97000   0.38027   0.51483   0.00000  Uiso   1.00
H382   H     1.07320   0.39409   0.56350   0.00000  Uiso   1.00
H383   H     0.66488   0.59769   0.18661   0.00000  Uiso   1.00
H384   H     0.72669   0.63697   0.27558   0.00000  Uiso   1.00
H385   H     0.69850   0.51548   0.23856   0.00000  Uiso   1.00
H386   H     0.86132   0.53512   0.26619   0.00000  Uiso   1.00
H387   H     0.96212   0.65563   0.27621   0.00000  Uiso   1.00
H388   H     0.93608   0.58409   0.19848   0.00000  Uiso   1.00
H389   H     0.81783   0.66784   0.07109   0.00000  Uiso   1.00
H390   H     0.76103   0.54602   0.09059   0.00000  Uiso   1.00
H391   H     0.88374   0.61244   0.08740   0.00000  Uiso   1.00
H392   H     0.65505   0.96364   0.27377   0.00000  Uiso   1.00
H393   H     0.52744   0.88780   0.26584   0.00000  Uiso   1.00
H394   H     0.60164   0.91063   0.19719   0.00000  Uiso   1.00
H395   H     0.79758   1.02192   0.22605   0.00000  Uiso   1.00
H396   H     0.74481   0.92135   0.16962   0.00000  Uiso   1.00
H397   H     0.72921   1.02502   0.15238   0.00000  Uiso   1.00
H398   H     0.57490   0.71826   0.39852   0.00000  Uiso   1.00
H399   H     0.49490   0.76212   0.35788   0.00000  Uiso   1.00
H400   H     0.60308   0.84046   0.40209   0.00000  Uiso   1.00
H401   H     0.91397   0.77748   0.53065   0.00000  Uiso   1.00
H402   H     0.79399   0.70286   0.54304   0.00000  Uiso   1.00
H403   H     0.88390   0.73756   0.61458   0.00000  Uiso   1.00
H404   H     0.83576   0.77146   0.43453   0.00000  Uiso   1.00
H405   H     0.74217   0.70393   0.37321   0.00000  Uiso   1.00
H406   H     0.73109   0.78074   0.42819   0.00000  Uiso   1.00
H407   H     0.70696   0.42562   0.80246   0.00000  Uiso   1.00
H408   H     0.69133   0.38184   0.71385   0.00000  Uiso   1.00
H409   H     0.63705   0.44501   0.73681   0.00000  Uiso   1.00
H410   H     0.92762   0.52843   0.77841   0.00000  Uiso   1.00
H411   H     0.84977   0.54183   0.84123   0.00000  Uiso   1.00
H412   H     0.94212   0.64218   0.80330   0.00000  Uiso   1.00
H413   H     0.66067   0.84036   0.79833   0.00000  Uiso   1.00
H414   H     0.69464   0.78580   0.87170   0.00000  Uiso   1.00
H415   H     0.74899   0.80347   0.78688   0.00000  Uiso   1.00
H416   H     0.93145   0.90609   0.87726   0.00000  Uiso   1.00
H417   H     0.84900   0.87945   0.94585   0.00000  Uiso   1.00
H418   H     0.93749   1.00036   0.92883   0.00000  Uiso   1.00
H419   H     0.80226   1.06526   0.92172   0.00000  Uiso   1.00
H420   H     0.69202   0.95978   0.91552   0.00000  Uiso   1.00
H421   H     0.72363   1.04481   0.84153   0.00000  Uiso   1.00
H422   H     0.58899   0.88662   1.00160   0.00000  Uiso   1.00
H423   H     0.61851   0.96995   1.06460   0.00000  Uiso   1.00
H424   H     0.53641   0.96074   0.99346   0.00000  Uiso   1.00
H425   H     1.06534   0.89093   0.61248   0.00000  Uiso   1.00
H426   H     1.13910   0.94796   0.68377   0.00000  Uiso   1.00
H427   H     1.12542   1.02756   0.62643   0.00000  Uiso   1.00
H428   H     0.71138   0.63142   0.76862   0.00000  Uiso   1.00
H429   H     0.70660   0.63753   0.67587   0.00000  Uiso   1.00
H430   H     0.80273   0.71635   0.72066   0.00000  Uiso   1.00
H431   H     0.98159   0.78800   0.74409   0.00000  Uiso   1.00
H432   H     0.91780   0.83087   0.79078   0.00000  Uiso   1.00
H433   H     1.04237   0.89041   0.80273   0.00000  Uiso   1.00
loop_
_geom_bond_atom_site_label_1
_geom_bond_atom_site_label_2
_geom_bond_distance
_geom_bond_site_symmetry_2
_ccdc_geom_bond_type
Si1    C52     1.870   .     S
Si1    O53     1.637   .     S
Si1    O77     1.670   1_545 S
Si1    O79     1.589   1_545 S
Si2    O56     1.635   .     S
Si2    O61     1.599   .     S
Si2    O136    1.568   1_455 S
Si2    O144    1.620   1_455 S
Si3    O53     1.622   .     S
Si3    O62     1.619   .     S
Si3    O59     1.602   1_554 S
Si3    O99     1.583   1_554 S
Si4    O57     1.624   .     S
Si4    O90     1.588   .     S
Si4    C54     1.818   1_545 S
Si4    O87     1.637   1_545 S
Si5    C55     1.760   .     S
Si5    O67     1.621   .     S
Si5    O140    1.656   1_455 S
Si5    O150    1.640   1_455 S
Si6    O56     1.615   .     S
Si6    O57     1.616   .     S
Si6    C58     1.850   .     S
Si6    O68     1.630   .     S
Si7    O59     1.589   .     S
Si7    O73     1.601   .     S
Si7    C60     1.851   1_455 S
Si7    O149    1.646   1_455 S
Si8    O61     1.586   .     S
Si8    O62     1.634   .     S
Si8    O63     1.583   .     S
Si8    O107    1.566   .     S
Si9    O63     1.605   .     S
Si9    C64     1.871   .     S
Si9    C65     1.850   1_554 S
Si9    C66     1.807   1_554 S
Si10   O67     1.619   .     S
Si10   O68     1.578   .     S
Si10   O72     1.664   .     S
Si10   O113    1.627   .     S
Si11   C69     1.860   .     S
Si11   O82     1.602   .     S
Si11   C70     1.797   1_455 S
Si11   O163    1.639   1_455 S
Si12   C71     1.815   .     S
Si12   O72     1.650   .     S
Si12   O83     1.631   .     S
Si12   O108    1.628   .     S
Si13   O73     1.583   .     S
Si13   C74     1.870   .     S
Si13   C75     1.886   .     S
Si13   C76     1.804   .     S
Si14   O77     1.696   .     S
Si14   O85     1.648   .     S
Si14   O169    1.614   1_455 S
Si14   O177    1.613   1_455 S
Si15   C78     1.861   .     S
Si15   O79     1.559   .     S
Si15   C80     1.844   1_554 S
Si15   C81     1.893   1_554 S
Si16   O82     1.627   .     S
Si16   O83     1.672   .     S
Si16   C84     1.919   .     S
Si16   O86     1.648   .     S
Si17   O85     1.602   .     S
Si17   O86     1.682   .     S
Si17   O87     1.613   .     S
Si17   O128    1.599   .     S
Si18   O88     1.570   .     S
Si18   O138    1.608   .     S
Si18   O127    1.541   1_545 S
Si18   O130    1.590   1_545 S
Si19   O88     1.545   .     S
Si19   O105    1.597   .     S
Si19   C89     1.788   1_554 S
Si19   O97     1.577   1_554 S
Si20   O90     1.621   .     S
Si20   C91     1.835   .     S
Si20   C92     1.895   .     S
Si20   C100    1.904   .     S
Si21   C93     1.844   .     S
Si21   C94     1.824   .     S
Si21   C95     1.853   .     S
Si21   O139    1.583   .     S
Si22   C96     1.881   .     S
Si22   O97     1.522   .     S
Si22   C98     1.843   .     S
Si22   O99     1.590   .     S
Si23   C101    1.855   .     S
Si23   C102    1.868   .     S
Si23   C103    1.884   .     S
Si23   O143    1.629   .     S
Si24   C104    1.851   .     S
Si24   O105    1.602   .     S
Si24   C106    1.859   .     S
Si24   C109    1.862   .     S
Si25   O107    1.654   .     S
Si25   O108    1.645   .     S
Si25   O116    1.588   .     S
Si25   O123    1.627   .     S
Si26   C110    1.862   .     S
Si26   O124    1.622   .     S
Si26   C111    1.943   1_554 S
Si26   C112    1.841   1_554 S
Si27   O113    1.618   .     S
Si27   C114    1.870   .     S
Si27   C115    1.823   .     S
Si27   O120    1.624   .     S
Si28   O116    1.551   .     S
Si28   C117    1.916   .     S
Si28   C118    1.878   .     S
Si28   C119    1.837   .     S
Si29   O120    1.618   .     S
Si29   C121    1.921   .     S
Si29   C122    1.882   .     S
Si29   O159    1.551   .     S
Si30   O123    1.650   .     S
Si30   O124    1.629   .     S
Si30   O129    1.612   .     S
Si30   O170    1.633   .     S
Si31   C125    1.840   .     S
Si31   C126    1.899   .     S
Si31   O127    1.627   .     S
Si31   O128    1.606   .     S
Si32   O129    1.603   .     S
Si32   O130    1.523   .     S
Si32   C131    1.867   1_554 S
Si32   C188    1.824   1_554 S
Si33   C132    1.888   .     S
Si33   C133    1.898   .     S
Si33   C134    1.865   .     S
Si33   O176    1.628   .     S
Si34   C135    1.837   .     S
Si34   O136    1.577   .     S
Si34   C137    1.843   1_545 S
Si34   C172    1.815   1_545 S
Si35   O138    1.573   .     S
Si35   O139    1.583   .     S
Si35   O145    1.675   .     S
Si35   O153    1.621   .     S
Si36   O140    1.603   .     S
Si36   C146    1.855   .     S
Si36   O175    1.608   1_545 S
Si36   O180    1.659   1_545 S
Si37   C141    1.875   .     S
Si37   C142    1.912   .     S
Si37   O143    1.588   .     S
Si37   O151    1.621   .     S
Si38   O144    1.617   .     S
Si38   O145    1.590   .     S
Si38   C147    1.823   .     S
Si38   C148    1.872   .     S
Si39   O149    1.622   .     S
Si39   O152    1.606   .     S
Si39   O186    1.616   1_545 S
Si39   O193    1.594   1_545 S
Si40   O150    1.610   .     S
Si40   O151    1.585   .     S
Si40   O152    1.562   .     S
Si40   O161    1.636   .     S
Si41   O153    1.577   .     S
Si41   C154    1.884   .     S
Si41   C155    1.901   .     S
Si41   C156    1.886   .     S
Si42   C157    1.867   .     S
Si42   C158    1.860   .     S
Si42   O159    1.636   .     S
Si42   O164    1.605   .     S
Si43   C160    1.852   .     S
Si43   O161    1.621   .     S
Si43   C162    1.878   .     S
Si43   O165    1.558   .     S
Si44   O163    1.636   .     S
Si44   O164    1.624   .     S
Si44   O165    1.628   .     S
Si44   O182    1.560   .     S
Si45   C166    1.779   .     S
Si45   C167    1.914   .     S
Si45   C168    1.875   .     S
Si45   O169    1.629   .     S
Si46   O170    1.584   .     S
Si46   C171    1.817   .     S
Si46   C173    1.821   .     S
Si46   O178    1.623   .     S
Si47   C174    1.875   .     S
Si47   O175    1.595   .     S
Si47   O176    1.604   .     S
Si47   O190    1.627   .     S
Si48   O177    1.644   .     S
Si48   O178    1.577   .     S
Si48   C179    1.799   .     S
Si48   O180    1.624   .     S
Si49   C181    1.905   .     S
Si49   O182    1.584   .     S
Si49   C183    1.868   .     S
Si49   C191    1.903   .     S
Si50   C184    1.829   .     S
Si50   C185    1.819   .     S
Si50   O186    1.602   .     S
Si50   C187    1.836   .     S
Si51   C189    1.919   .     S
Si51   O190    1.645   .     S
Si51   C192    1.839   .     S
Si51   O193    1.607   .     S
C52    H194    1.121   .     S
C52    H195    1.101   .     S
C52    H196    1.136   .     S
C54    H197    1.129   .     S
C54    H198    1.028   .     S
C54    H199    1.127   .     S
C54    Si4     1.818   1_565 S
C55    H200    1.080   .     S
C55    H201    1.136   .     S
C55    H202    1.143   .     S
C58    H203    1.141   .     S
C58    H204    1.133   .     S
C58    H205    1.068   .     S
O59    Si3     1.602   1_556 S
C60    H206    1.098   .     S
C60    H207    1.079   .     S
C60    H208    1.146   .     S
C60    Si7     1.851   1_655 S
C64    H209    1.091   .     S
C64    H210    1.081   .     S
C64    H211    1.100   .     S
C65    H212    1.095   .     S
C65    H213    1.156   .     S
C65    H214    1.147   .     S
C65    Si9     1.850   1_556 S
C66    H215    1.105   .     S
C66    H216    1.154   .     S
C66    H217    1.106   .     S
C66    Si9     1.807   1_556 S
C69    H218    1.111   .     S
C69    H219    1.120   .     S
C69    H220    1.106   .     S
C70    H221    1.079   .     S
C70    H222    1.133   .     S
C70    H223    1.097   .     S
C70    Si11    1.797   1_655 S
C71    H224    1.105   .     S
C71    H225    1.153   .     S
C71    H226    1.090   .     S
C74    H227    1.095   .     S
C74    H228    0.994   .     S
C74    H229    1.206   .     S
C75    H230    1.098   .     S
C75    H231    1.097   .     S
C75    H232    1.095   .     S
C76    H233    1.089   .     S
C76    H234    1.081   .     S
C76    H235    1.086   .     S
O77    Si1     1.670   1_565 S
C78    H236    1.126   .     S
C78    H237    1.020   .     S
C78    H238    1.070   .     S
O79    Si1     1.589   1_565 S
C80    H239    1.119   .     S
C80    H240    1.121   .     S
C80    H241    1.149   .     S
C80    Si15    1.844   1_556 S
C81    H242    1.115   .     S
C81    H243    1.072   .     S
C81    H244    1.072   .     S
C81    Si15    1.893   1_556 S
C84    H245    1.087   .     S
C84    H246    1.125   .     S
C84    H247    1.117   .     S
O87    Si4     1.637   1_565 S
C89    H248    1.122   .     S
C89    H249    1.162   .     S
C89    H250    1.095   .     S
C89    Si19    1.788   1_556 S
C91    H251    1.058   .     S
C91    H252    1.119   .     S
C91    H253    1.094   .     S
C92    H254    1.088   .     S
C92    H255    1.119   .     S
C92    H256    1.154   .     S
C93    H257    1.115   .     S
C93    H258    1.175   .     S
C93    H259    1.117   .     S
C94    H260    1.109   .     S
C94    H261    1.107   .     S
C94    H262    1.066   .     S
C95    H263    1.077   .     S
C95    H264    1.138   .     S
C95    H265    1.063   .     S
C96    H266    1.095   .     S
C96    H267    1.033   .     S
C96    H268    1.081   .     S
O97    Si19    1.577   1_556 S
C98    H269    1.092   .     S
C98    H270    1.123   .     S
C98    H271    1.136   .     S
O99    Si3     1.583   1_556 S
C100   H272    1.156   .     S
C100   H273    1.181   .     S
C100   H274    1.063   .     S
C101   H275    1.128   .     S
C101   H276    1.094   .     S
C101   H277    1.123   .     S
C102   H278    1.086   .     S
C102   H279    1.091   .     S
C102   H280    1.173   .     S
C103   H281    1.081   .     S
C103   H282    1.099   .     S
C103   H283    1.098   .     S
C104   H284    1.123   .     S
C104   H285    1.058   .     S
C104   H286    1.115   .     S
C106   H287    1.131   .     S
C106   H288    1.114   .     S
C106   H289    1.073   .     S
C109   H290    1.098   .     S
C109   H291    1.099   .     S
C109   H292    1.071   .     S
C110   H293    1.090   .     S
C110   H294    1.049   .     S
C110   H295    1.119   .     S
C111   H296    1.095   .     S
C111   H297    1.137   .     S
C111   H298    1.131   .     S
C111   Si26    1.943   1_556 S
C112   H299    1.082   .     S
C112   H300    1.100   .     S
C112   H301    1.141   .     S
C112   Si26    1.841   1_556 S
C114   H302    1.087   .     S
C114   H303    1.115   .     S
C114   H304    1.054   .     S
C115   H305    1.122   .     S
C115   H306    1.127   .     S
C115   H307    1.097   .     S
C117   H308    1.143   .     S
C117   H309    1.067   .     S
C117   H310    1.133   .     S
C118   H311    1.127   .     S
C118   H312    1.071   .     S
C118   H313    1.099   .     S
C119   H314    1.071   .     S
C119   H315    1.085   .     S
C119   H316    1.102   .     S
C121   H317    1.056   .     S
C121   H318    1.091   .     S
C121   H319    1.083   .     S
C122   H320    1.089   .     S
C122   H321    1.073   .     S
C122   H322    1.128   .     S
C125   H323    1.090   .     S
C125   H324    1.167   .     S
C125   H325    1.082   .     S
C126   H326    1.132   .     S
C126   H327    1.100   .     S
C126   H328    1.044   .     S
O127   Si18    1.541   1_565 S
O130   Si18    1.590   1_565 S
C131   H329    1.058   .     S
C131   H330    1.046   .     S
C131   H331    1.200   .     S
C131   Si32    1.867   1_556 S
C132   H332    1.097   .     S
C132   H333    1.093   .     S
C132   H334    1.092   .     S
C133   H335    1.130   .     S
C133   H336    1.147   .     S
C133   H337    1.127   .     S
C134   H338    1.102   .     S
C134   H339    1.049   .     S
C134   H340    1.116   .     S
C135   H341    1.122   .     S
C135   H342    1.110   .     S
C135   H343    1.112   .     S
O136   Si2     1.568   1_655 S
C137   H344    1.073   .     S
C137   H345    1.115   .     S
C137   H346    1.105   .     S
C137   Si34    1.843   1_565 S
O140   Si5     1.656   1_655 S
C141   H347    1.101   .     S
C141   H348    1.067   .     S
C141   H349    1.145   .     S
C142   H350    1.137   .     S
C142   H351    1.129   .     S
C142   H352    1.103   .     S
O144   Si2     1.620   1_655 S
C146   H353    1.088   .     S
C146   H354    1.063   .     S
C146   H355    1.063   .     S
C147   H356    1.097   .     S
C147   H357    1.053   .     S
C147   H358    1.084   .     S
C148   H359    1.046   .     S
C148   H360    1.062   .     S
C148   H361    1.089   .     S
O149   Si7     1.646   1_655 S
O150   Si5     1.640   1_655 S
C154   H362    1.140   .     S
C154   H363    1.102   .     S
C154   H364    1.092   .     S
C155   H365    1.105   .     S
C155   H366    1.114   .     S
C155   H367    1.081   .     S
C156   H368    1.105   .     S
C156   H369    1.129   .     S
C156   H370    1.135   .     S
C157   H371    1.125   .     S
C157   H372    1.118   .     S
C157   H373    1.102   .     S
C158   H374    1.085   .     S
C158   H375    1.075   .     S
C158   H376    1.071   .     S
C160   H377    1.125   .     S
C160   H378    1.091   .     S
C160   H379    1.138   .     S
C162   H380    1.141   .     S
C162   H381    1.111   .     S
C162   H382    1.111   .     S
O163   Si11    1.639   1_655 S
C166   H383    1.123   .     S
C166   H384    1.175   .     S
C166   H385    1.172   .     S
C167   H386    1.061   .     S
C167   H387    1.161   .     S
C167   H388    1.053   .     S
C168   H389    1.086   .     S
C168   H390    1.122   .     S
C168   H391    1.067   .     S
O169   Si14    1.614   1_655 S
C171   H392    1.105   .     S
C171   H393    1.108   .     S
C171   H394    1.080   .     S
C172   H395    1.101   .     S
C172   H396    1.094   .     S
C172   H397    1.068   .     S
C172   Si34    1.815   1_565 S
C173   H398    1.107   .     S
C173   H399    1.095   .     S
C173   H400    1.127   .     S
C174   H401    1.132   .     S
C174   H402    1.131   .     S
C174   H403    1.060   .     S
O175   Si36    1.608   1_565 S
O177   Si14    1.613   1_655 S
C179   H404    1.118   .     S
C179   H405    1.068   .     S
C179   H406    1.079   .     S
O180   Si36    1.659   1_565 S
C181   H407    1.094   .     S
C181   H408    1.102   .     S
C181   H409    1.086   .     S
C183   H410    1.079   .     S
C183   H411    1.194   .     S
C183   H412    1.111   .     S
C184   H413    1.131   .     S
C184   H414    1.146   .     S
C184   H415    1.097   .     S
C185   H416    1.144   .     S
C185   H417    1.104   .     S
C185   H418    1.119   .     S
O186   Si39    1.616   1_565 S
C187   H419    1.113   .     S
C187   H420    1.133   .     S
C187   H421    1.141   .     S
C188   H422    1.084   .     S
C188   H423    1.119   .     S
C188   H424    1.113   .     S
C188   Si32    1.824   1_556 S
C189   H425    1.140   .     S
C189   H426    1.112   .     S
C189   H427    1.068   .     S
C191   H428    1.082   .     S
C191   H429    1.118   .     S
C191   H430    1.087   .     S
C192   H431    1.153   .     S
C192   H432    1.085   .     S
C192   H433    1.126   .     S
O193   Si39    1.594   1_565 S
