data_333-13-11-12-15-30-17
_audit_creation_date              2025-03-07
_audit_creation_method            'Materials Studio'
_symmetry_space_group_name_H-M    'P1'
_symmetry_Int_Tables_number       1
_symmetry_cell_setting            triclinic
loop_
_symmetry_equiv_pos_as_xyz
  x,y,z
_cell_length_a                    16.1640
_cell_length_b                    17.2668
_cell_length_c                    18.5892
_cell_angle_alpha                 83.9892
_cell_angle_beta                  89.8827
_cell_angle_gamma                 119.0604
loop_
_atom_site_label
_atom_site_type_symbol
_atom_site_fract_x
_atom_site_fract_y
_atom_site_fract_z
_atom_site_U_iso_or_equiv
_atom_site_adp_type
_atom_site_occupancy
Si1    Si    0.20066   0.07350   0.07941   0.00000  Uiso   1.00
Si2    Si    0.01917   0.17310   0.19919   0.00000  Uiso   1.00
Si3    Si    0.17518   0.22679  -0.00049   0.00000  Uiso   1.00
Si4    Si   -0.05342   0.11891   0.45899   0.00000  Uiso   1.00
Si5    Si    0.23798   0.13056   0.80972   0.00000  Uiso   1.00
Si6    Si   -0.00807   0.21513   0.92367   0.00000  Uiso   1.00
Si7    Si    0.16352   0.35178   0.10142   0.00000  Uiso   1.00
Si8    Si   -0.03156   0.43802   0.24358   0.00000  Uiso   1.00
Si9    Si    0.11267   0.48556   0.02557   0.00000  Uiso   1.00
Si10   Si    0.12663   0.28592   0.39672   0.00000  Uiso   1.00
Si11   Si    0.01337   0.47426   0.52433   0.00000  Uiso   1.00
Si12   Si    0.16241   0.45186   0.29698   0.00000  Uiso   1.00
Si13   Si    0.16444   0.47972   0.62990   0.00000  Uiso   1.00
Si14   Si    0.05011   0.89956   0.17934   0.00000  Uiso   1.00
Si15   Si    0.15896   0.57918   0.39808   0.00000  Uiso   1.00
Si16   Si    0.46676   0.04258   0.09902   0.00000  Uiso   1.00
Si17   Si    0.33173   0.18097   0.18464   0.00000  Uiso   1.00
Si18   Si    0.48672   0.20780   0.00865   0.00000  Uiso   1.00
Si19   Si    0.30538   0.08748   0.47614   0.00000  Uiso   1.00
Si20   Si    0.35821   0.25503   0.91457   0.00000  Uiso   1.00
Si21   Si    0.57296   0.30037   0.71657   0.00000  Uiso   1.00
Si22   Si    0.52935   0.32368   0.12711   0.00000  Uiso   1.00
Si23   Si    0.33143   0.47880   0.19516   0.00000  Uiso   1.00
Si24   Si    0.53859   0.49395   0.04982   0.00000  Uiso   1.00
Si25   Si    0.45718   0.25614   0.38189   0.00000  Uiso   1.00
Si26   Si    0.45884   0.41550   0.29274   0.00000  Uiso   1.00
Si27   Si    0.55170   0.40502   0.83329   0.00000  Uiso   1.00
Si28   Si    0.43885   0.55007   0.93373   0.00000  Uiso   1.00
Si29   Si    0.57873   0.57193   0.73181   0.00000  Uiso   1.00
Si30   Si    0.52670   0.62885   0.12858   0.00000  Uiso   1.00
Si31   Si    0.31830   0.84129   0.10135   0.00000  Uiso   1.00
Si32   Si    0.58110   0.80095   0.02077   0.00000  Uiso   1.00
Si33   Si    0.30973   0.75456   0.44980   0.00000  Uiso   1.00
Si34   Si    0.57374   0.70430   0.82296   0.00000  Uiso   1.00
Si35   Si    0.46147   0.78626   0.74564   0.00000  Uiso   1.00
Si36   Si    0.84031   0.20284   0.02761   0.00000  Uiso   1.00
Si37   Si    0.73366  -0.00677   0.44007   0.00000  Uiso   1.00
Si38   Si    0.69882   0.25262   0.62780   0.00000  Uiso   1.00
Si39   Si    0.84639   0.06352   0.83356   0.00000  Uiso   1.00
Si40   Si    0.81448   0.20476   0.73402   0.00000  Uiso   1.00
Si41   Si    0.82783   0.28039   0.16769   0.00000  Uiso   1.00
Si42   Si    0.66033   0.44882   0.23097   0.00000  Uiso   1.00
Si43   Si    0.82094   0.33424   0.48326   0.00000  Uiso   1.00
Si44   Si    0.81900   0.44325   0.34443   0.00000  Uiso   1.00
Si45   Si    0.68699   0.49521   0.94769   0.00000  Uiso   1.00
Si46   Si    0.59456   0.72556   0.26361   0.00000  Uiso   1.00
Si47   Si    0.89319   0.85310  -0.04347   0.00000  Uiso   1.00
Si48   Si    0.87230   0.61963   0.39615   0.00000  Uiso   1.00
Si49   Si    0.84421   0.59450   0.83327   0.00000  Uiso   1.00
Si50   Si    0.72707   0.86368   0.89506   0.00000  Uiso   1.00
Si51   Si    0.90359   0.98967   0.71154   0.00000  Uiso   1.00
C52    C     0.21527   1.01968  -0.00014   0.00000  Uiso   1.00
C53    C     0.07846   0.12822   0.26266   0.00000  Uiso   1.00
C54    C     0.92187   0.16801   0.25706   0.00000  Uiso   1.00
C55    C     0.96595   0.10250   0.12370   0.00000  Uiso   1.00
O56    O     0.16645   0.14275   0.05363   0.00000  Uiso   1.00
C57    C    -0.02478   0.02434   0.47472   0.00000  Uiso   1.00
C58    C     0.27951   0.21484   0.72597   0.00000  Uiso   1.00
C59    C     0.11802   1.11346   0.84375   0.00000  Uiso   1.00
C60    C     0.23752   1.02933   0.78958   0.00000  Uiso   1.00
O61    O     0.07583   0.19715   0.95974   0.00000  Uiso   1.00
C62    C     0.04637   0.29648   0.84691   0.00000  Uiso   1.00
O63    O     0.09283   0.27343   0.16474   0.00000  Uiso   1.00
O64    O     0.19395   0.30905   0.04100   0.00000  Uiso   1.00
C65    C    -0.02312   0.54086   0.18883   0.00000  Uiso   1.00
O66    O     0.10711   0.39683   0.06634   0.00000  Uiso   1.00
C67    C     0.19468   0.57819   0.07550   0.00000  Uiso   1.00
C68    C    -0.00682   0.47453   1.03111   0.00000  Uiso   1.00
O69    O     0.02322   0.19907   0.40466   0.00000  Uiso   1.00
C70    C     0.20921   0.23997   0.39897   0.00000  Uiso   1.00
C71    C     0.15690   0.35328   0.47205   0.00000  Uiso   1.00
C72    C     0.96685   0.52612   0.58420   0.00000  Uiso   1.00
O73    O     0.07650   0.45561   0.25725   0.00000  Uiso   1.00
O74    O     0.13423   0.35074   0.32535   0.00000  Uiso   1.00
O75    O     0.07975   0.44790   0.57558   0.00000  Uiso   1.00
C76    C     0.18849   0.38193   0.66034   0.00000  Uiso   1.00
C77    C     0.13168   0.52380   0.70634   0.00000  Uiso   1.00
C78    C     0.27669   0.56497   0.57695   0.00000  Uiso   1.00
C79    C     0.08627   0.87390   0.27045   0.00000  Uiso   1.00
O80    O     0.12258   0.99911   0.14089   0.00000  Uiso   1.00
C81    C     0.93522   0.89445   0.19562   0.00000  Uiso   1.00
C82    C     1.03507   0.80934   0.12484   0.00000  Uiso   1.00
O83    O     0.07448   0.54386   0.45948   0.00000  Uiso   1.00
O84    O     0.17429   0.50438   0.36437   0.00000  Uiso   1.00
C85    C     0.13214   0.64523   0.32575   0.00000  Uiso   1.00
C86    C     0.46823   0.05175   0.19804   0.00000  Uiso   1.00
O87    O     0.29618   0.12878   0.11756   0.00000  Uiso   1.00
C88    C     0.28788   0.10306   0.27524   0.00000  Uiso   1.00
C89    C     0.28327   0.25499   0.18048   0.00000  Uiso   1.00
O90    O     0.44179   0.10965   0.05056   0.00000  Uiso   1.00
C91    C     0.56005   0.21624   0.92742   0.00000  Uiso   1.00
C92    C     0.19320  -0.00232   0.44078   0.00000  Uiso   1.00
C93    C     0.27802   0.12157   0.55867   0.00000  Uiso   1.00
O94    O     0.31153   0.17086   0.87127   0.00000  Uiso   1.00
O95    O     0.40757   0.23396   0.98182   0.00000  Uiso   1.00
O96    O     0.26972   0.26470   0.94629   0.00000  Uiso   1.00
C97    C     0.38586   0.03672   0.49374   0.00000  Uiso   1.00
C98    C     0.53454   0.35571   0.64805   0.00000  Uiso   1.00
C99    C     0.48690   0.17823   0.74350   0.00000  Uiso   1.00
O100   O     0.44469   0.24526   0.17824   0.00000  Uiso   1.00
O101   O     0.54531   0.27634   0.06570   0.00000  Uiso   1.00
O102   O     0.25988   0.42540   0.13108   0.00000  Uiso   1.00
O103   O     0.25802   0.48858   0.25049   0.00000  Uiso   1.00
O104   O     0.50120   0.39302   0.09181   0.00000  Uiso   1.00
O105   O     0.35798   0.17419   0.41807   0.00000  Uiso   1.00
C106   C     0.52737   0.20236   0.34567   0.00000  Uiso   1.00
C107   C     0.53095   0.33105   0.44687   0.00000  Uiso   1.00
O108   O     0.38288   0.42724   0.23613   0.00000  Uiso   1.00
O109   O     0.42796   0.31560   0.32276   0.00000  Uiso   1.00
C110   C     0.45197   0.47078   0.37261   0.00000  Uiso   1.00
O111   O     0.44211   0.34234   0.86523   0.00000  Uiso   1.00
O112   O     0.58852   0.35992   0.78117   0.00000  Uiso   1.00
C113   C     0.35689   0.48193   0.87080   0.00000  Uiso   1.00
O114   O     0.46809   0.49420   0.99214   0.00000  Uiso   1.00
C115   C     0.36283   0.58578   0.97921   0.00000  Uiso   1.00
C116   C     0.13924   0.50261   0.92650   0.00000  Uiso   1.00
C117   C     0.46552   0.53980   0.68633   0.00000  Uiso   1.00
O118   O     0.56899   0.49863   0.79589   0.00000  Uiso   1.00
C119   C     0.66989   0.58716   0.66357   0.00000  Uiso   1.00
O120   O     0.41300   0.57152   0.15236   0.00000  Uiso   1.00
O121   O     0.55381   0.55994   0.10961   0.00000  Uiso   1.00
C122   C     0.24117   0.84656   0.17201   0.00000  Uiso   1.00
C123   C     0.25547   0.80415   0.01453   0.00000  Uiso   1.00
O124   O     0.41066   0.94126   0.08103   0.00000  Uiso   1.00
C125   C     0.35369   0.76023   0.14315   0.00000  Uiso   1.00
O126   O     0.54487   0.69898   0.05746   0.00000  Uiso   1.00
C127   C     0.60004   0.86657   0.09510   0.00000  Uiso   1.00
C128   C     0.58946   1.07833   0.08207   0.00000  Uiso   1.00
C129   C     0.48991   0.81248   0.95884   0.00000  Uiso   1.00
O130   O     0.25280   0.65335   0.43076   0.00000  Uiso   1.00
C131   C     0.32235   0.82790   0.36234   0.00000  Uiso   1.00
C132   C     0.25333   0.77469   0.52760   0.00000  Uiso   1.00
O133   O     0.53233   0.63257   0.89485   0.00000  Uiso   1.00
O134   O     0.60653   0.66432   0.76227   0.00000  Uiso   1.00
C135   C     0.43167   0.78178   0.46586   0.00000  Uiso   1.00
C136   C     0.49373   0.79324   0.64992   0.00000  Uiso   1.00
O137   O     0.49178   0.72254   0.79249   0.00000  Uiso   1.00
C138   C     0.33155   0.74206   0.75291   0.00000  Uiso   1.00
C139   C     0.51899   0.90781   0.76343   0.00000  Uiso   1.00
O140   O     0.94358   0.24330   0.98368   0.00000  Uiso   1.00
C141   C     0.77793   0.08077   0.03354   0.00000  Uiso   1.00
C142   C     0.77071   0.24586   0.97347   0.00000  Uiso   1.00
C143   C     0.66888   0.00232   0.36024   0.00000  Uiso   1.00
O144   O     0.84005   0.07373   0.42871   0.00000  Uiso   1.00
C145   C     0.66440   0.99576   0.51953   0.00000  Uiso   1.00
C146   C     0.73839   0.88777   0.44756   0.00000  Uiso   1.00
C147   C     0.59112   0.16860   0.58715   0.00000  Uiso   1.00
O148   O     0.66342   0.30077   0.68170   0.00000  Uiso   1.00
O149   O     0.91307   0.12224   0.89681   0.00000  Uiso   1.00
C150   C     0.93353   0.16258   0.54191   0.00000  Uiso   1.00
C151   C     0.94077   0.27044   0.68985   0.00000  Uiso   1.00
O152   O     0.73890   0.19517   0.67360   0.00000  Uiso   1.00
O153   O     0.80213   0.11762   0.78474   0.00000  Uiso   1.00
C154   C     0.81619   0.28604   0.78963   0.00000  Uiso   1.00
C155   C     0.73381   0.19318   0.23933   0.00000  Uiso   1.00
O156   O     0.85929   0.23444   0.10851   0.00000  Uiso   1.00
C157   C     0.77557   0.34182   0.12328   0.00000  Uiso   1.00
O158   O     0.92099   0.35194   0.20025   0.00000  Uiso   1.00
O159   O     0.62083   0.37641   0.17404   0.00000  Uiso   1.00
C160   C     0.74923   0.55808   0.17872   0.00000  Uiso   1.00
O161   O     0.57087   0.45825   0.26330   0.00000  Uiso   1.00
O162   O     0.76662   0.31745   0.55976   0.00000  Uiso   1.00
C163   C     0.80110   0.23331   0.44581   0.00000  Uiso   1.00
O164   O     0.93144   0.38983   0.49364   0.00000  Uiso   1.00
O165   O     0.89449   0.41576   0.31306   0.00000  Uiso   1.00
O166   O     0.72900   0.43246   0.29283   0.00000  Uiso   1.00
O167   O     0.78564   0.38329   0.42115   0.00000  Uiso   1.00
O168   O     0.60976   0.41954   0.90478   0.00000  Uiso   1.00
C169   C     0.75113   0.44858   0.99606   0.00000  Uiso   1.00
O170   O     0.63878   0.52698   1.00619   0.00000  Uiso   1.00
O171   O     0.59099   0.67838   0.19259   0.00000  Uiso   1.00
C172   C     0.61909   0.67039   0.34683   0.00000  Uiso   1.00
C173   C     0.69083   0.84697   0.25249   0.00000  Uiso   1.00
C174   C     0.47768   0.71769   0.28421   0.00000  Uiso   1.00
C175   C     0.99248   0.84890   0.91177   0.00000  Uiso   1.00
C176   C     0.82343   0.75198   0.01922   0.00000  Uiso   1.00
C177   C     0.94198   0.95147   0.00666   0.00000  Uiso   1.00
C178   C     0.76660   0.57680   0.46370   0.00000  Uiso   1.00
O179   O     0.88068   0.54211   0.36156   0.00000  Uiso   1.00
C180   C     0.85017   0.68954   0.32991   0.00000  Uiso   1.00
C181   C     0.98318   0.69437   0.44398   0.00000  Uiso   1.00
O182   O     0.76066   0.57712   0.89235   0.00000  Uiso   1.00
C183   C     0.82056   0.49105   0.78911   0.00000  Uiso   1.00
C184   C     0.95885   0.63268   0.88303   0.00000  Uiso   1.00
O185   O     0.65560   0.79718   0.83965   0.00000  Uiso   1.00
O186   O     0.82200   0.85877   0.89995   0.00000  Uiso   1.00
O187   O     0.76082   0.96815   0.86488   0.00000  Uiso   1.00
O188   O     0.67575   0.84119   0.97165   0.00000  Uiso   1.00
C189   C     1.03046   1.06748   0.66401   0.00000  Uiso   1.00
C190   C     0.80029   0.96240   0.65502   0.00000  Uiso   1.00
C191   C     0.86874   0.68243   0.75405   0.00000  Uiso   1.00
C192   C     0.90045   0.88327   0.74123   0.00000  Uiso   1.00
O193   O     0.90814   1.04504   0.77724   0.00000  Uiso   1.00
H194   H     0.17177   1.01996  -0.04647   0.00000  Uiso   1.00
H195   H     0.20369   0.95191   0.01239   0.00000  Uiso   1.00
H196   H     0.29214   1.05158  -0.02424   0.00000  Uiso   1.00
H197   H     0.13240   0.17904   0.28550   0.00000  Uiso   1.00
H198   H     0.10370   0.09206   0.23432   0.00000  Uiso   1.00
H199   H     0.03069   0.07632   0.30617   0.00000  Uiso   1.00
H200   H     0.91013   0.11597   0.30134   0.00000  Uiso   1.00
H201   H     0.86214   0.14425   0.22256   0.00000  Uiso   1.00
H202   H     0.92859   0.22917   0.27646   0.00000  Uiso   1.00
H203   H     1.00676   0.06539   0.11851   0.00000  Uiso   1.00
H204   H     0.96336   0.14410   0.07262   0.00000  Uiso   1.00
H205   H     0.89197   0.05057   0.13861   0.00000  Uiso   1.00
H206   H    -0.03583  -0.00307   0.42401   0.00000  Uiso   1.00
H207   H    -0.07263  -0.02612   0.51273   0.00000  Uiso   1.00
H208   H     0.04783   0.04520   0.49129   0.00000  Uiso   1.00
H209   H     0.29175   0.28057   0.73651   0.00000  Uiso   1.00
H210   H     0.23097   0.18872   0.68230   0.00000  Uiso   1.00
H211   H     0.34514   0.21625   0.70344   0.00000  Uiso   1.00
H212   H     0.10378   1.08568   0.90204   0.00000  Uiso   1.00
H213   H     0.06217   1.07577   0.80913   0.00000  Uiso   1.00
H214   H     0.12089   1.17391   0.84119   0.00000  Uiso   1.00
H215   H     0.22812   0.98734   0.84043   0.00000  Uiso   1.00
H216   H     0.30338   1.04292   0.76330   0.00000  Uiso   1.00
H217   H     0.17884   0.98803   0.75666   0.00000  Uiso   1.00
H218   H     0.04157   0.26153   0.79917   0.00000  Uiso   1.00
H219   H     0.12313   0.33722   0.85628   0.00000  Uiso   1.00
H220   H     0.01252   0.33966   0.84562   0.00000  Uiso   1.00
H221   H     0.03205   0.56280   0.14990   0.00000  Uiso   1.00
H222   H    -0.01454   0.59437   0.22154   0.00000  Uiso   1.00
H223   H    -0.08655   0.52933   0.15753   0.00000  Uiso   1.00
H224   H     0.21323   0.55376   0.12484   0.00000  Uiso   1.00
H225   H     0.15700   0.61203   0.09059   0.00000  Uiso   1.00
H226   H     0.24776   0.62454   0.03709   0.00000  Uiso   1.00
H227   H    -0.03015   0.44532   1.08459   0.00000  Uiso   1.00
H228   H    -0.04822   0.43071   0.98916   0.00000  Uiso   1.00
H229   H     0.00075   0.54046   1.01695   0.00000  Uiso   1.00
H230   H     0.26124   0.27500   0.43499   0.00000  Uiso   1.00
H231   H     0.24771   0.25354   0.34820   0.00000  Uiso   1.00
H232   H     0.16903   0.16840   0.41089   0.00000  Uiso   1.00
H233   H     0.22837   0.40813   0.46992   0.00000  Uiso   1.00
H234   H     0.15614   0.30658   0.51621   0.00000  Uiso   1.00
H235   H     0.10415   0.37372   0.47819   0.00000  Uiso   1.00
H236   H     0.92860   0.55273   0.55051   0.00000  Uiso   1.00
H237   H     1.02582   0.58403   0.60592   0.00000  Uiso   1.00
H238   H     0.91743   0.46246   0.62529   0.00000  Uiso   1.00
H239   H     0.25222   0.39580   0.62783   0.00000  Uiso   1.00
H240   H     0.13579   0.31757   0.64219   0.00000  Uiso   1.00
H241   H     0.20128   0.36957   0.71874   0.00000  Uiso   1.00
H242   H     0.15769   0.51033   0.75647   0.00000  Uiso   1.00
H243   H     0.05800   0.50124   0.71430   0.00000  Uiso   1.00
H244   H     0.16969   0.59631   0.69098   0.00000  Uiso   1.00
H245   H     0.26975   0.62644   0.56979   0.00000  Uiso   1.00
H246   H     0.28681   0.55017   0.52454   0.00000  Uiso   1.00
H247   H     0.34243   0.57317   0.60692   0.00000  Uiso   1.00
H248   H     0.06095   0.90224   0.31041   0.00000  Uiso   1.00
H249   H     0.16178   0.89313   0.27172   0.00000  Uiso   1.00
H250   H     0.05294   0.80197   0.28352   0.00000  Uiso   1.00
H251   H     0.89398   0.89464   0.14717   0.00000  Uiso   1.00
H252   H     0.94027   0.94239   0.23131   0.00000  Uiso   1.00
H253   H     0.88499   0.82768   0.22763   0.00000  Uiso   1.00
H254   H     1.09858   0.83396   0.08997   0.00000  Uiso   1.00
H255   H     0.97149   0.79368   0.09423   0.00000  Uiso   1.00
H256   H     1.01878   0.74957   0.16229   0.00000  Uiso   1.00
H257   H     0.18424   0.66616   0.28006   0.00000  Uiso   1.00
H258   H     0.13019   0.70561   0.33851   0.00000  Uiso   1.00
H259   H     0.05785   0.59671   0.31382   0.00000  Uiso   1.00
H260   H     0.39675   0.03578   0.21798   0.00000  Uiso   1.00
H261   H     0.51719   0.12205   0.20855   0.00000  Uiso   1.00
H262   H     0.47832  -0.00338   0.22971   0.00000  Uiso   1.00
H263   H     0.24581   0.03697   0.25698   0.00000  Uiso   1.00
H264   H     0.24417   0.11532   0.31472   0.00000  Uiso   1.00
H265   H     0.34847   0.10451   0.30288   0.00000  Uiso   1.00
H266   H     0.28724   0.27969   0.23033   0.00000  Uiso   1.00
H267   H     0.21520   0.21321   0.15991   0.00000  Uiso   1.00
H268   H     0.31702   0.31271   0.13903   0.00000  Uiso   1.00
H269   H     0.52546   0.22344   0.87740   0.00000  Uiso   1.00
H270   H     0.57636   0.16099   0.93177   0.00000  Uiso   1.00
H271   H     0.62930   0.27474   0.92311   0.00000  Uiso   1.00
H272   H     0.21692  -0.03377   0.40386   0.00000  Uiso   1.00
H273   H     0.14947   0.02230   0.41103   0.00000  Uiso   1.00
H274   H     0.15343  -0.05140   0.48992   0.00000  Uiso   1.00
H275   H     0.34244   0.18759   0.56416   0.00000  Uiso   1.00
H276   H     0.27170   0.07645   0.60449   0.00000  Uiso   1.00
H277   H     0.21267   0.12865   0.55777   0.00000  Uiso   1.00
H278   H     0.45617   0.09094   0.48759   0.00000  Uiso   1.00
H279   H     0.37797  -0.01123   0.45633   0.00000  Uiso   1.00
H280   H     0.37273   0.00462   0.54825   0.00000  Uiso   1.00
H281   H     0.59354   0.41185   0.61291   0.00000  Uiso   1.00
H282   H     0.48912   0.37710   0.67201   0.00000  Uiso   1.00
H283   H     0.49143   0.30966   0.61173   0.00000  Uiso   1.00
H284   H     0.52014   0.13798   0.76801   0.00000  Uiso   1.00
H285   H     0.44354   0.14356   0.69447   0.00000  Uiso   1.00
H286   H     0.43786   0.17618   0.78240   0.00000  Uiso   1.00
H287   H     0.47667   0.12821   0.34531   0.00000  Uiso   1.00
H288   H     0.58609   0.20539   0.37862   0.00000  Uiso   1.00
H289   H     0.54910   0.23677   0.28771   0.00000  Uiso   1.00
H290   H     0.59187   0.39427   0.42083   0.00000  Uiso   1.00
H291   H     0.56617   0.29890   0.48408   0.00000  Uiso   1.00
H292   H     0.48071   0.34305   0.48301   0.00000  Uiso   1.00
H293   H     0.38857   0.43009   0.41297   0.00000  Uiso   1.00
H294   H     0.45333   0.53192   0.35465   0.00000  Uiso   1.00
H295   H     0.51275   0.48896   0.40452   0.00000  Uiso   1.00
H296   H     0.28502   0.43060   0.89704   0.00000  Uiso   1.00
H297   H     0.38929   0.45189   0.83554   0.00000  Uiso   1.00
H298   H     0.34890   0.53238   0.83159   0.00000  Uiso   1.00
H299   H     0.30590   0.52428   1.00860   0.00000  Uiso   1.00
H300   H     0.33599   0.61161   0.93367   0.00000  Uiso   1.00
H301   H     0.39307   0.63255   1.02031   0.00000  Uiso   1.00
H302   H     0.18012   0.57414   0.90778   0.00000  Uiso   1.00
H303   H     0.07438   0.47191   0.89695   0.00000  Uiso   1.00
H304   H     0.18537   0.47487   0.91361   0.00000  Uiso   1.00
H305   H     0.47696   0.55594   0.62756   0.00000  Uiso   1.00
H306   H     0.42557   0.56856   0.71320   0.00000  Uiso   1.00
H307   H     0.41827   0.46905   0.70623   0.00000  Uiso   1.00
H308   H     0.71856   0.66246   0.64631   0.00000  Uiso   1.00
H309   H     0.63176   0.56164   0.61394   0.00000  Uiso   1.00
H310   H     0.70943   0.55097   0.67874   0.00000  Uiso   1.00
H311   H     0.16744   0.78825   0.18877   0.00000  Uiso   1.00
H312   H     0.24483   0.91206   0.15669   0.00000  Uiso   1.00
H313   H     0.28300   0.85777   0.22062   0.00000  Uiso   1.00
H314   H     0.17577   0.76008   0.02751   0.00000  Uiso   1.00
H315   H     0.28498   0.77452  -0.01958   0.00000  Uiso   1.00
H316   H     0.25833   0.85988  -0.01297   0.00000  Uiso   1.00
H317   H     0.41569   0.79893   0.17560   0.00000  Uiso   1.00
H318   H     0.37139   0.72606   0.10279   0.00000  Uiso   1.00
H319   H     0.29432   0.71777   0.17881   0.00000  Uiso   1.00
H320   H     0.58155   0.91698   0.07627   0.00000  Uiso   1.00
H321   H     0.67752   0.89944   0.10626   0.00000  Uiso   1.00
H322   H     0.56019   0.82881   0.14653   0.00000  Uiso   1.00
H323   H     0.60019   1.06533   0.02877   0.00000  Uiso   1.00
H324   H     0.61814   1.04600   0.12152   0.00000  Uiso   1.00
H325   H     0.62568   1.14991   0.08659   0.00000  Uiso   1.00
H326   H     0.41932   0.78378   0.99285   0.00000  Uiso   1.00
H327   H     0.48149   0.77749   0.91254   0.00000  Uiso   1.00
H328   H     0.51438   0.88399   0.93960   0.00000  Uiso   1.00
H329   H     0.38894   0.89599   0.36693   0.00000  Uiso   1.00
H330   H     0.25648   0.83602   0.35969   0.00000  Uiso   1.00
H331   H     0.33480   0.80485   0.31310   0.00000  Uiso   1.00
H332   H     0.17993   0.72004   0.53955   0.00000  Uiso   1.00
H333   H     0.24108   0.83083   0.52315   0.00000  Uiso   1.00
H334   H     0.29126   0.76745   0.57790   0.00000  Uiso   1.00
H335   H     0.46627   0.78386   0.41584   0.00000  Uiso   1.00
H336   H     0.44647   0.73625   0.50154   0.00000  Uiso   1.00
H337   H     0.46565   0.84951   0.48735   0.00000  Uiso   1.00
H338   H     0.56952   0.82986   0.62990   0.00000  Uiso   1.00
H339   H     0.46081   0.82862   0.62024   0.00000  Uiso   1.00
H340   H     0.45973   0.72453   0.63682   0.00000  Uiso   1.00
H341   H     0.29277   0.67555   0.79279   0.00000  Uiso   1.00
H342   H     0.30695   0.72405   0.69966   0.00000  Uiso   1.00
H343   H     0.31239   0.79674   0.76545   0.00000  Uiso   1.00
H344   H     0.59675   0.93867   0.75428   0.00000  Uiso   1.00
H345   H     0.50013   0.92301   0.81395   0.00000  Uiso   1.00
H346   H     0.49912   0.95047   0.72680   0.00000  Uiso   1.00
H347   H     0.82041   0.05065   0.02010   0.00000  Uiso   1.00
H348   H     0.72186   0.06054  -0.00691   0.00000  Uiso   1.00
H349   H     0.75050   0.05723   0.08878   0.00000  Uiso   1.00
H350   H     0.72935   0.19859   0.93127   0.00000  Uiso   1.00
H351   H     0.81186   0.31011   0.93960   0.00000  Uiso   1.00
H352   H     0.71979   0.25398   1.00672   0.00000  Uiso   1.00
H353   H     0.60447  -0.06445   0.35710   0.00000  Uiso   1.00
H354   H     0.71641   0.02004   0.31181   0.00000  Uiso   1.00
H355   H     0.64070   0.04764   0.36464   0.00000  Uiso   1.00
H356   H     0.71096   1.02838   0.56257   0.00000  Uiso   1.00
H357   H     0.60257   0.93315   0.54688   0.00000  Uiso   1.00
H358   H     0.63228   1.03788   0.49641   0.00000  Uiso   1.00
H359   H     0.78138   0.88706   0.40279   0.00000  Uiso   1.00
H360   H     0.66458   0.83016   0.45053   0.00000  Uiso   1.00
H361   H     0.77419   0.88381   0.49500   0.00000  Uiso   1.00
H362   H     0.54049   0.19405   0.58442   0.00000  Uiso   1.00
H363   H     0.56296   0.09991   0.61553   0.00000  Uiso   1.00
H364   H     0.61339   0.15866   0.53403   0.00000  Uiso   1.00
H365   H     0.87166   0.11298   0.57868   0.00000  Uiso   1.00
H366   H     0.93260   0.22357   0.52539   0.00000  Uiso   1.00
H367   H     0.99723   0.18224   0.56837   0.00000  Uiso   1.00
H368   H     0.94495   0.30164   0.63544   0.00000  Uiso   1.00
H369   H     0.97439   0.23038   0.67706   0.00000  Uiso   1.00
H370   H     0.98720   0.32235   0.72377   0.00000  Uiso   1.00
H371   H     0.74458   0.26999   0.81415   0.00000  Uiso   1.00
H372   H     0.85848   0.35342   0.76157   0.00000  Uiso   1.00
H373   H     0.85696   0.28550   0.84087   0.00000  Uiso   1.00
H374   H     0.68014   0.12575   0.21963   0.00000  Uiso   1.00
H375   H     0.68679   0.21882   0.26186   0.00000  Uiso   1.00
H376   H     0.77325   0.18695   0.28353   0.00000  Uiso   1.00
H377   H     0.80839   0.37174   0.06966   0.00000  Uiso   1.00
H378   H     0.78808   0.39795   0.15261   0.00000  Uiso   1.00
H379   H     0.69715   0.29578   0.12686   0.00000  Uiso   1.00
H380   H     0.72618   0.56123   0.12185   0.00000  Uiso   1.00
H381   H     0.82399   0.59014   0.17601   0.00000  Uiso   1.00
H382   H     0.73120   0.60592   0.20230   0.00000  Uiso   1.00
H383   H     0.78454   0.17686   0.48895   0.00000  Uiso   1.00
H384   H     0.86299   0.25377   0.41165   0.00000  Uiso   1.00
H385   H     0.74559   0.21884   0.40927   0.00000  Uiso   1.00
H386   H     0.78959   0.48992   1.03862   0.00000  Uiso   1.00
H387   H     0.79831   0.44269   0.95682   0.00000  Uiso   1.00
H388   H     0.69449   0.38206   1.01909   0.00000  Uiso   1.00
H389   H     0.69069   0.71540   0.36680   0.00000  Uiso   1.00
H390   H     0.61666   0.60530   0.33088   0.00000  Uiso   1.00
H391   H     0.56280   0.65325   0.38977   0.00000  Uiso   1.00
H392   H     0.74423   0.85794   0.29467   0.00000  Uiso   1.00
H393   H     0.65790   0.89127   0.24944   0.00000  Uiso   1.00
H394   H     0.72979   0.85676   0.20066   0.00000  Uiso   1.00
H395   H     0.42334   0.66155   0.25841   0.00000  Uiso   1.00
H396   H     0.48931   0.78810   0.27850   0.00000  Uiso   1.00
H397   H     0.46689   0.69773   0.34544   0.00000  Uiso   1.00
H398   H     1.03392   0.83552   0.95548   0.00000  Uiso   1.00
H399   H     1.04321   0.91394   0.87948   0.00000  Uiso   1.00
H400   H     0.96392   0.79392   0.87750   0.00000  Uiso   1.00
H401   H     0.80841   0.77243   0.07034   0.00000  Uiso   1.00
H402   H     0.85727   0.70473   0.02021   0.00000  Uiso   1.00
H403   H     0.75609   0.72487  -0.00964   0.00000  Uiso   1.00
H404   H     0.96961   1.01018  -0.03660   0.00000  Uiso   1.00
H405   H     0.99764   0.95142   0.03878   0.00000  Uiso   1.00
H406   H     0.88901   0.95807   0.04007   0.00000  Uiso   1.00
H407   H     0.75101   0.63150   0.47428   0.00000  Uiso   1.00
H408   H     0.78421   0.54581   0.51077   0.00000  Uiso   1.00
H409   H     0.69631   0.52352   0.44414   0.00000  Uiso   1.00
H410   H     0.85214   0.74535   0.35789   0.00000  Uiso   1.00
H411   H     0.77672   0.65200   0.31359   0.00000  Uiso   1.00
H412   H     0.90747   0.71749   0.28542   0.00000  Uiso   1.00
H413   H     0.95458   0.70540   0.49208   0.00000  Uiso   1.00
H414   H     1.02821   0.76189   0.41423   0.00000  Uiso   1.00
H415   H     1.03387   0.67213   0.45753   0.00000  Uiso   1.00
H416   H     0.75575   0.46710   0.75824   0.00000  Uiso   1.00
H417   H     0.82266   0.44434   0.83303   0.00000  Uiso   1.00
H418   H     0.87948   0.51085   0.74827   0.00000  Uiso   1.00
H419   H     0.95463   0.57164   0.90883   0.00000  Uiso   1.00
H420   H     0.96994   0.67935   0.92077   0.00000  Uiso   1.00
H421   H     1.01826   0.66033   0.84070   0.00000  Uiso   1.00
H422   H     1.04858   1.13971   0.66864   0.00000  Uiso   1.00
H423   H     1.04582   1.06248   0.60605   0.00000  Uiso   1.00
H424   H     1.08092   1.05277   0.69449   0.00000  Uiso   1.00
H425   H     0.77436   1.01078   0.66182   0.00000  Uiso   1.00
H426   H     0.73940   0.89281   0.66966   0.00000  Uiso   1.00
H427   H     0.82812   0.96918   0.60108   0.00000  Uiso   1.00
H428   H     0.80661   0.69452   0.75350   0.00000  Uiso   1.00
H429   H     0.86556   0.65120   0.70634   0.00000  Uiso   1.00
H430   H     0.93543   0.74471   0.75117   0.00000  Uiso   1.00
H431   H     0.91652   0.85510   0.69304   0.00000  Uiso   1.00
H432   H     0.82928   0.83219   0.76746   0.00000  Uiso   1.00
H433   H     0.96297   0.89906   0.77688   0.00000  Uiso   1.00
loop_
_geom_bond_atom_site_label_1
_geom_bond_atom_site_label_2
_geom_bond_distance
_geom_bond_site_symmetry_2
_ccdc_geom_bond_type
Si1    O56     1.577   .     S
Si1    O87     1.585   .     S
Si1    C52     1.899   1_545 S
Si1    O80     1.631   1_545 S
Si2    C53     1.856   .     S
Si2    O63     1.609   .     S
Si2    C54     1.865   1_455 S
Si2    C55     1.881   1_455 S
Si3    O56     1.623   .     S
Si3    O64     1.586   .     S
Si3    O61     1.635   1_554 S
Si3    O96     1.621   1_554 S
Si4    C57     1.898   .     S
Si4    O69     1.583   .     S
Si4    O144    1.638   1_455 S
Si4    C150    1.840   1_455 S
Si5    C58     1.888   .     S
Si5    O94     1.605   .     S
Si5    C59     1.910   1_545 S
Si5    C60     1.822   1_545 S
Si6    O61     1.660   .     S
Si6    C62     1.777   .     S
Si6    O140    1.603   1_455 S
Si6    O149    1.622   1_455 S
Si7    O63     1.637   .     S
Si7    O64     1.604   .     S
Si7    O66     1.564   .     S
Si7    O102    1.604   .     S
Si8    C65     1.896   .     S
Si8    O73     1.646   .     S
Si8    O158    1.610   1_455 S
Si8    O165    1.640   1_455 S
Si9    O66     1.598   .     S
Si9    C67     1.853   .     S
Si9    C68     1.848   1_554 S
Si9    C116    1.850   1_554 S
Si10   O69     1.607   .     S
Si10   C70     1.853   .     S
Si10   C71     1.829   .     S
Si10   O74     1.607   .     S
Si11   O75     1.629   .     S
Si11   O83     1.553   .     S
Si11   C72     1.862   1_455 S
Si11   O164    1.583   1_455 S
Si12   O73     1.600   .     S
Si12   O74     1.602   .     S
Si12   O84     1.581   .     S
Si12   O103    1.570   .     S
Si13   O75     1.608   .     S
Si13   C76     1.939   .     S
Si13   C77     1.869   .     S
Si13   C78     1.877   .     S
Si14   C79     1.872   .     S
Si14   O80     1.619   .     S
Si14   C81     1.839   1_455 S
Si14   C82     1.864   1_455 S
Si15   O83     1.606   .     S
Si15   O84     1.613   .     S
Si15   C85     1.860   .     S
Si15   O130    1.609   .     S
Si16   C86     1.863   .     S
Si16   O90     1.598   .     S
Si16   O124    1.605   1_545 S
Si16   C128    1.784   1_545 S
Si17   O87     1.560   .     S
Si17   C88     1.934   .     S
Si17   C89     1.790   .     S
Si17   O100    1.607   .     S
Si18   O90     1.591   .     S
Si18   O101    1.613   .     S
Si18   C91     1.867   1_554 S
Si18   O95     1.614   1_554 S
Si19   C92     1.900   .     S
Si19   C93     1.826   .     S
Si19   C97     1.902   .     S
Si19   O105    1.597   .     S
Si20   O94     1.585   .     S
Si20   O95     1.588   .     S
Si20   O96     1.634   .     S
Si20   O111    1.635   .     S
Si21   C98     1.802   .     S
Si21   C99     1.887   .     S
Si21   O112    1.604   .     S
Si21   O148    1.595   .     S
Si22   O100    1.592   .     S
Si22   O101    1.561   .     S
Si22   O104    1.561   .     S
Si22   O159    1.625   .     S
Si23   O102    1.675   .     S
Si23   O103    1.649   .     S
Si23   O108    1.626   .     S
Si23   O120    1.616   .     S
Si24   O104    1.644   .     S
Si24   O121    1.609   .     S
Si24   O114    1.568   1_554 S
Si24   O170    1.614   1_554 S
Si25   O105    1.618   .     S
Si25   C106    1.938   .     S
Si25   C107    1.841   .     S
Si25   O109    1.650   .     S
Si26   O108    1.691   .     S
Si26   O109    1.580   .     S
Si26   C110    1.878   .     S
Si26   O161    1.654   .     S
Si27   O111    1.631   .     S
Si27   O112    1.583   .     S
Si27   O118    1.581   .     S
Si27   O168    1.599   .     S
Si28   C113    1.813   .     S
Si28   O114    1.599   .     S
Si28   C115    1.856   .     S
Si28   O133    1.589   .     S
Si29   C117    1.868   .     S
Si29   O118    1.592   .     S
Si29   C119    1.843   .     S
Si29   O134    1.600   .     S
Si30   O120    1.640   .     S
Si30   O121    1.525   .     S
Si30   O126    1.618   .     S
Si30   O171    1.607   .     S
Si31   C122    1.848   .     S
Si31   C123    1.908   .     S
Si31   O124    1.646   .     S
Si31   C125    1.855   .     S
Si32   O126    1.629   .     S
Si32   C127    1.811   .     S
Si32   C129    1.945   1_554 S
Si32   O188    1.577   1_554 S
Si33   O130    1.611   .     S
Si33   C131    1.899   .     S
Si33   C132    1.858   .     S
Si33   C135    1.824   .     S
Si34   O133    1.616   .     S
Si34   O134    1.596   .     S
Si34   O137    1.596   .     S
Si34   O185    1.570   .     S
Si35   C136    1.828   .     S
Si35   O137    1.592   .     S
Si35   C138    1.852   .     S
Si35   C139    1.905   .     S
Si36   C141    1.832   .     S
Si36   O156    1.632   .     S
Si36   O140    1.638   1_554 S
Si36   C142    1.868   1_554 S
Si37   C143    1.855   .     S
Si37   O144    1.597   .     S
Si37   C145    1.869   1_545 S
Si37   C146    1.850   1_545 S
Si38   C147    1.868   .     S
Si38   O148    1.630   .     S
Si38   O152    1.606   .     S
Si38   O162    1.600   .     S
Si39   O149    1.663   .     S
Si39   O153    1.638   .     S
Si39   O187    1.596   1_545 S
Si39   O193    1.603   1_545 S
Si40   C151    1.917   .     S
Si40   O152    1.622   .     S
Si40   O153    1.613   .     S
Si40   C154    1.818   .     S
Si41   C155    1.923   .     S
Si41   O156    1.634   .     S
Si41   C157    1.792   .     S
Si41   O158    1.585   .     S
Si42   O159    1.611   .     S
Si42   C160    1.883   .     S
Si42   O161    1.651   .     S
Si42   O166    1.696   .     S
Si43   O162    1.593   .     S
Si43   C163    1.827   .     S
Si43   O164    1.589   .     S
Si43   O167    1.626   .     S
Si44   O165    1.635   .     S
Si44   O166    1.688   .     S
Si44   O167    1.594   .     S
Si44   O179    1.572   .     S
Si45   O168    1.594   .     S
Si45   C169    1.787   .     S
Si45   O170    1.621   .     S
Si45   O182    1.591   .     S
Si46   O171    1.609   .     S
Si46   C172    1.876   .     S
Si46   C173    1.897   .     S
Si46   C174    1.863   .     S
Si47   C176    1.826   .     S
Si47   C177    1.846   .     S
Si47   C175    1.842   1_554 S
Si47   O186    1.592   1_554 S
Si48   C178    1.901   .     S
Si48   O179    1.606   .     S
Si48   C180    1.792   .     S
Si48   C181    1.915   .     S
Si49   O182    1.628   .     S
Si49   C183    1.912   .     S
Si49   C184    1.916   .     S
Si49   C191    1.891   .     S
Si50   O185    1.636   .     S
Si50   O186    1.580   .     S
Si50   O187    1.642   .     S
Si50   O188    1.560   .     S
Si51   C189    1.964   .     S
Si51   C190    1.860   .     S
Si51   C192    1.838   .     S
Si51   O193    1.609   .     S
C52    H194    1.114   .     S
C52    H195    1.090   .     S
C52    H196    1.153   .     S
C52    Si1     1.899   1_565 S
C53    H197    1.023   .     S
C53    H198    1.072   .     S
C53    H199    1.108   .     S
C54    H200    1.095   .     S
C54    H201    1.088   .     S
C54    H202    1.107   .     S
C54    Si2     1.865   1_655 S
C55    H203    1.131   .     S
C55    H204    1.143   .     S
C55    H205    1.103   .     S
C55    Si2     1.881   1_655 S
C57    H206    1.075   .     S
C57    H207    1.035   .     S
C57    H208    1.103   .     S
C58    H209    1.093   .     S
C58    H210    1.102   .     S
C58    H211    1.128   .     S
C59    H212    1.114   .     S
C59    H213    1.083   .     S
C59    H214    1.018   .     S
C59    Si5     1.910   1_565 S
C60    H215    1.091   .     S
C60    H216    1.076   .     S
C60    H217    1.104   .     S
C60    Si5     1.822   1_565 S
O61    Si3     1.635   1_556 S
C62    H218    1.107   .     S
C62    H219    1.115   .     S
C62    H220    1.117   .     S
C65    H221    1.036   .     S
C65    H222    1.112   .     S
C65    H223    1.122   .     S
C67    H224    1.073   .     S
C67    H225    1.082   .     S
C67    H226    1.048   .     S
C68    H227    1.046   .     S
C68    H228    1.124   .     S
C68    H229    1.087   .     S
C68    Si9     1.848   1_556 S
C70    H230    1.056   .     S
C70    H231    1.069   .     S
C70    H232    1.077   .     S
C71    H233    1.078   .     S
C71    H234    1.084   .     S
C71    H235    1.079   .     S
C72    H236    1.097   .     S
C72    H237    1.110   .     S
C72    H238    1.182   .     S
C72    Si11    1.862   1_655 S
C76    H239    1.101   .     S
C76    H240    1.111   .     S
C76    H241    1.123   .     S
C77    H242    1.073   .     S
C77    H243    1.062   .     S
C77    H244    1.097   .     S
C78    H245    1.115   .     S
C78    H246    1.065   .     S
C78    H247    1.154   .     S
C79    H248    1.108   .     S
C79    H249    1.099   .     S
C79    H250    1.085   .     S
O80    Si1     1.631   1_565 S
C81    H251    1.122   .     S
C81    H252    1.087   .     S
C81    H253    1.135   .     S
C81    Si14    1.839   1_655 S
C82    H254    1.082   .     S
C82    H255    1.103   .     S
C82    H256    1.097   .     S
C82    Si14    1.864   1_655 S
C85    H257    1.095   .     S
C85    H258    1.108   .     S
C85    H259    1.120   .     S
C86    H260    1.103   .     S
C86    H261    1.120   .     S
C86    H262    1.146   .     S
C88    H263    1.099   .     S
C88    H264    1.122   .     S
C88    H265    1.098   .     S
C89    H266    1.049   .     S
C89    H267    1.080   .     S
C89    H268    1.093   .     S
C91    H269    1.113   .     S
C91    H270    1.102   .     S
C91    H271    1.079   .     S
C91    Si18    1.867   1_556 S
C92    H272    1.092   .     S
C92    H273    1.109   .     S
C92    H274    1.128   .     S
C93    H275    1.125   .     S
C93    H276    1.061   .     S
C93    H277    1.121   .     S
O95    Si18    1.614   1_556 S
O96    Si3     1.621   1_556 S
C97    H278    1.060   .     S
C97    H279    1.097   .     S
C97    H280    1.071   .     S
C98    H281    1.115   .     S
C98    H282    1.082   .     S
C98    H283    1.072   .     S
C99    H284    1.130   .     S
C99    H285    1.179   .     S
C99    H286    1.057   .     S
C106   H287    1.137   .     S
C106   H288    1.113   .     S
C106   H289    1.140   .     S
C107   H290    1.113   .     S
C107   H291    1.157   .     S
C107   H292    1.159   .     S
C110   H293    1.137   .     S
C110   H294    1.063   .     S
C110   H295    1.076   .     S
C113   H296    1.131   .     S
C113   H297    1.143   .     S
C113   H298    1.133   .     S
O114   Si24    1.568   1_556 S
C115   H299    1.095   .     S
C115   H300    1.102   .     S
C115   H301    1.106   .     S
C116   H302    1.095   .     S
C116   H303    1.098   .     S
C116   H304    1.101   .     S
C116   Si9     1.850   1_556 S
C117   H305    1.091   .     S
C117   H306    1.129   .     S
C117   H307    1.100   .     S
C119   H308    1.153   .     S
C119   H309    1.118   .     S
C119   H310    1.109   .     S
C122   H311    1.139   .     S
C122   H312    1.110   .     S
C122   H313    1.106   .     S
C123   H314    1.142   .     S
C123   H315    1.093   .     S
C123   H316    1.021   .     S
O124   Si16    1.605   1_565 S
C125   H317    1.118   .     S
C125   H318    1.117   .     S
C125   H319    1.054   .     S
C127   H320    1.076   .     S
C127   H321    1.127   .     S
C127   H322    1.101   .     S
C128   H323    1.071   .     S
C128   H324    1.110   .     S
C128   H325    1.094   .     S
C128   Si16    1.784   1_565 S
C129   H326    1.153   .     S
C129   H327    1.074   .     S
C129   H328    1.114   .     S
C129   Si32    1.945   1_556 S
C131   H329    1.158   .     S
C131   H330    1.140   .     S
C131   H331    1.091   .     S
C132   H332    1.102   .     S
C132   H333    1.075   .     S
C132   H334    1.148   .     S
C135   H335    1.072   .     S
C135   H336    1.091   .     S
C135   H337    1.142   .     S
C136   H338    1.111   .     S
C136   H339    1.099   .     S
C136   H340    1.094   .     S
C138   H341    1.175   .     S
C138   H342    1.087   .     S
C138   H343    1.171   .     S
C139   H344    1.105   .     S
C139   H345    1.082   .     S
C139   H346    1.111   .     S
O140   Si6     1.603   1_655 S
O140   Si36    1.638   1_556 S
C141   H347    1.085   .     S
C141   H348    1.122   .     S
C141   H349    1.073   .     S
C142   H350    1.155   .     S
C142   H351    1.098   .     S
C142   H352    1.099   .     S
C142   Si36    1.868   1_556 S
C143   H353    1.125   .     S
C143   H354    1.098   .     S
C143   H355    1.089   .     S
O144   Si4     1.638   1_655 S
C145   H356    1.100   .     S
C145   H357    1.122   .     S
C145   H358    1.134   .     S
C145   Si37    1.869   1_565 S
C146   H359    1.088   .     S
C146   H360    1.119   .     S
C146   H361    1.070   .     S
C146   Si37    1.850   1_565 S
C147   H362    1.100   .     S
C147   H363    1.112   .     S
C147   H364    1.108   .     S
O149   Si6     1.622   1_655 S
C150   H365    1.115   .     S
C150   H366    1.073   .     S
C150   H367    1.056   .     S
C150   Si4     1.840   1_655 S
C151   H368    1.081   .     S
C151   H369    1.109   .     S
C151   H370    1.110   .     S
C154   H371    1.133   .     S
C154   H372    1.092   .     S
C154   H373    1.161   .     S
C155   H374    1.163   .     S
C155   H375    1.146   .     S
C155   H376    1.069   .     S
C157   H377    1.080   .     S
C157   H378    1.095   .     S
C157   H379    1.119   .     S
O158   Si8     1.610   1_655 S
C160   H380    1.126   .     S
C160   H381    1.055   .     S
C160   H382    1.126   .     S
C163   H383    1.117   .     S
C163   H384    1.066   .     S
C163   H385    1.072   .     S
O164   Si11    1.583   1_655 S
O165   Si8     1.640   1_655 S
C169   H386    1.100   .     S
C169   H387    1.101   .     S
C169   H388    1.102   .     S
O170   Si24    1.614   1_556 S
C172   H389    1.127   .     S
C172   H390    1.174   .     S
C172   H391    1.113   .     S
C173   H392    1.127   .     S
C173   H393    1.122   .     S
C173   H394    1.102   .     S
C174   H395    1.102   .     S
C174   H396    1.129   .     S
C174   H397    1.142   .     S
C175   H398    1.129   .     S
C175   H399    1.121   .     S
C175   H400    1.106   .     S
C175   Si47    1.842   1_556 S
C176   H401    1.113   .     S
C176   H402    1.181   .     S
C176   H403    1.119   .     S
C177   H404    1.123   .     S
C177   H405    1.081   .     S
C177   H406    1.113   .     S
C178   H407    1.124   .     S
C178   H408    1.088   .     S
C178   H409    1.151   .     S
C180   H410    1.129   .     S
C180   H411    1.103   .     S
C180   H412    1.120   .     S
C181   H413    1.081   .     S
C181   H414    1.111   .     S
C181   H415    1.081   .     S
C183   H416    1.109   .     S
C183   H417    1.099   .     S
C183   H418    1.108   .     S
C184   H419    1.082   .     S
C184   H420    1.073   .     S
C184   H421    1.114   .     S
O186   Si47    1.592   1_556 S
O187   Si39    1.596   1_565 S
O188   Si32    1.577   1_556 S
C189   H422    1.147   .     S
C189   H423    1.126   .     S
C189   H424    1.106   .     S
C190   H425    1.119   .     S
C190   H426    1.126   .     S
C190   H427    1.069   .     S
C191   H428    1.121   .     S
C191   H429    1.074   .     S
C191   H430    1.088   .     S
C192   H431    1.149   .     S
C192   H432    1.123   .     S
C192   H433    1.144   .     S
O193   Si39    1.603   1_565 S
