data_333-7-11-18-15-30-11
_audit_creation_date              2025-03-07
_audit_creation_method            'Materials Studio'
_symmetry_space_group_name_H-M    'P1'
_symmetry_Int_Tables_number       1
_symmetry_cell_setting            triclinic
loop_
_symmetry_equiv_pos_as_xyz
  x,y,z
_cell_length_a                    17.3454
_cell_length_b                    18.0057
_cell_length_c                    19.7201
_cell_angle_alpha                 102.9601
_cell_angle_beta                  78.1494
_cell_angle_gamma                 126.2029
loop_
_atom_site_label
_atom_site_type_symbol
_atom_site_fract_x
_atom_site_fract_y
_atom_site_fract_z
_atom_site_U_iso_or_equiv
_atom_site_adp_type
_atom_site_occupancy
Si1    Si    0.21471   0.04950   0.16503   0.00000  Uiso   1.00
Si2    Si   -0.14063   0.09227   0.27325   0.00000  Uiso   1.00
Si3    Si    0.39933   0.30448  -0.08159   0.00000  Uiso   1.00
Si4    Si    0.13423   0.01135   0.39493   0.00000  Uiso   1.00
Si5    Si    0.18921   0.18851   0.35423   0.00000  Uiso   1.00
Si6    Si    0.05395   0.47643   0.12640   0.00000  Uiso   1.00
Si7    Si    0.14578   0.37596  -0.12187   0.00000  Uiso   1.00
Si8    Si   -0.04383   0.14504   0.59621   0.00000  Uiso   1.00
Si9    Si   -0.04833   0.28181   0.53131   0.00000  Uiso   1.00
Si10   Si    0.19286   0.53098  -0.00822   0.00000  Uiso   1.00
Si11   Si    0.01050   0.87789   0.21605   0.00000  Uiso   1.00
Si12   Si    0.11625   0.76539   0.40964   0.00000  Uiso   1.00
Si13   Si    0.13075   0.90160   0.74270   0.00000  Uiso   1.00
Si14   Si    0.14503   0.86908   0.28796   0.00000  Uiso   1.00
Si15   Si    0.50971   0.02925   0.13036   0.00000  Uiso   1.00
Si16   Si    0.36509   0.20594   0.27513   0.00000  Uiso   1.00
Si17   Si    0.53524   0.19275   0.06650   0.00000  Uiso   1.00
Si18   Si    0.48930   0.19351   0.51592   0.00000  Uiso   1.00
Si19   Si    0.49799   0.22080   0.36799   0.00000  Uiso   1.00
Si20   Si    0.61083   0.03080   0.81580   0.00000  Uiso   1.00
Si21   Si    0.40681   0.16021   0.95563   0.00000  Uiso   1.00
Si22   Si    0.52656   0.02722   0.69089   0.00000  Uiso   1.00
Si23   Si    0.53202   0.34852   0.17440   0.00000  Uiso   1.00
Si24   Si    0.53049   0.41076   0.43091   0.00000  Uiso   1.00
Si25   Si    0.34942   0.55244   0.66125   0.00000  Uiso   1.00
Si26   Si    0.53583   0.58410   0.70201   0.00000  Uiso   1.00
Si27   Si    0.33815   0.90763   0.22682   0.00000  Uiso   1.00
Si28   Si    0.54155   0.87935   0.02569   0.00000  Uiso   1.00
Si29   Si    0.30273   0.60686   0.54611   0.00000  Uiso   1.00
Si30   Si    0.58566   0.73222   0.82777   0.00000  Uiso   1.00
Si31   Si    0.45449   0.89815   0.91594   0.00000  Uiso   1.00
Si32   Si    0.62403   0.86851   0.74039   0.00000  Uiso   1.00
Si33   Si    0.74054  -0.05745   0.15577   0.00000  Uiso   1.00
Si34   Si    0.62755   0.18391   0.26024   0.00000  Uiso   1.00
Si35   Si    0.79684   0.09088   0.06916   0.00000  Uiso   1.00
Si36   Si    0.59515  -0.01302   0.39880   0.00000  Uiso   1.00
Si37   Si    0.74854   0.17315   0.34741   0.00000  Uiso   1.00
Si38   Si    0.89432  -0.02954   0.85543   0.00000  Uiso   1.00
Si39   Si    0.74252   0.54359   0.19548   0.00000  Uiso   1.00
Si40   Si    0.92219   0.45326  -0.10094   0.00000  Uiso   1.00
Si41   Si    0.84906   0.38009   0.39100   0.00000  Uiso   1.00
Si42   Si    0.61781   0.58136   0.54729   0.00000  Uiso   1.00
Si43   Si    0.92903   0.54811   0.17992   0.00000  Uiso   1.00
Si44   Si    0.73925   0.44950   0.91285   0.00000  Uiso   1.00
Si45   Si    0.82735   0.51130   0.68007   0.00000  Uiso   1.00
Si46   Si    0.84996   0.72195   0.11271   0.00000  Uiso   1.00
Si47   Si    0.58424   0.74352   0.18804   0.00000  Uiso   1.00
Si48   Si    0.81057   0.84127   0.05731   0.00000  Uiso   1.00
Si49   Si    0.80444   0.60176   0.82683   0.00000  Uiso   1.00
Si50   Si    0.71041   0.85417   0.95268   0.00000  Uiso   1.00
Si51   Si    0.94517   0.87583   0.73545   0.00000  Uiso   1.00
C52    C     0.23808   0.96982   0.10528   0.00000  Uiso   1.00
C53    C    -0.03351   0.15574   0.20776   0.00000  Uiso   1.00
C54    C     0.22062   0.13682   0.12022   0.00000  Uiso   1.00
C55    C     0.27621   0.26709  -0.03839   0.00000  Uiso   1.00
C56    C     0.48070   0.43111  -0.07444   0.00000  Uiso   1.00
C57    C     0.38864   0.26391   0.82524   0.00000  Uiso   1.00
C58    C     0.20988   0.07330   0.46762   0.00000  Uiso   1.00
C59    C    -0.11610   0.05511   0.34519   0.00000  Uiso   1.00
C60    C     0.13823   0.19921   0.28617   0.00000  Uiso   1.00
O61    O     0.13186   0.08234   0.35974   0.00000  Uiso   1.00
C62    C     0.17065   0.25261   0.44058   0.00000  Uiso   1.00
C63    C     0.14951   0.56026   0.18850   0.00000  Uiso   1.00
C64    C     1.01842   0.36070   0.13000   0.00000  Uiso   1.00
C65    C     0.25184   0.37193  -0.16351   0.00000  Uiso   1.00
C66    C     0.07010   0.28133   0.93464   0.00000  Uiso   1.00
C67    C     0.07572   0.33398   0.80122   0.00000  Uiso   1.00
C68    C    -0.09916   0.17070   0.68332   0.00000  Uiso   1.00
C69    C    -0.13661   0.02667   0.55295   0.00000  Uiso   1.00
C70    C     0.07055   0.15800   0.60444   0.00000  Uiso   1.00
C71    C    -0.17992   0.21916   0.54776   0.00000  Uiso   1.00
O72    O    -0.02099   0.21581   0.54473   0.00000  Uiso   1.00
C73    C     0.00443   0.38917   0.59998   0.00000  Uiso   1.00
O74    O     0.09955   0.49825   0.04889   0.00000  Uiso   1.00
O75    O     0.16528   0.47158  -0.07945   0.00000  Uiso   1.00
C76    C     0.25525   0.65440  -0.02430   0.00000  Uiso   1.00
O77    O     0.10328   0.98285   0.20070   0.00000  Uiso   1.00
C78    C     0.92363   0.89164   0.27952   0.00000  Uiso   1.00
C79    C     0.17218   0.70174   0.39226   0.00000  Uiso   1.00
C80    C     0.19666   0.86914   0.46862   0.00000  Uiso   1.00
C81    C    -0.00279   0.71270   0.45680   0.00000  Uiso   1.00
C82    C     0.16269   0.85991   0.80460   0.00000  Uiso   1.00
C83    C     0.21207   1.02766   0.73946   0.00000  Uiso   1.00
C84    C     0.01113   0.91991   0.43349   0.00000  Uiso   1.00
C85    C     1.14551   0.84929   0.65209   0.00000  Uiso   1.00
O86    O     0.05560   0.83461   0.24509   0.00000  Uiso   1.00
O87    O     0.11781   0.79403   0.33661   0.00000  Uiso   1.00
O88    O     0.17652   0.96275   0.33883   0.00000  Uiso   1.00
O89    O     0.30417   0.11899   0.21657   0.00000  Uiso   1.00
O90    O     0.29714   0.22672   0.33141   0.00000  Uiso   1.00
O91    O     0.50764   0.09719   0.09277   0.00000  Uiso   1.00
C92    C     0.64792   0.22966   1.01149   0.00000  Uiso   1.00
C93    C     0.49885   0.29075   0.57784   0.00000  Uiso   1.00
C94    C     0.39575   1.08401   0.55912   0.00000  Uiso   1.00
C95    C     0.60070   1.20211   0.50291   0.00000  Uiso   1.00
O96    O     0.41564   0.18218   0.31923   0.00000  Uiso   1.00
O97    O     0.45430   0.17848   0.44235   0.00000  Uiso   1.00
C98    C     0.70874   0.15490   0.82961   0.00000  Uiso   1.00
C99    C     0.27517   0.06896   0.94747   0.00000  Uiso   1.00
O100   O     0.44794   0.16222   1.02305   0.00000  Uiso   1.00
C101   C     0.46526   0.12645   0.87766   0.00000  Uiso   1.00
O102   O     0.43593   0.25942   0.95010   0.00000  Uiso   1.00
C103   C     0.39703  -0.07335   0.67678   0.00000  Uiso   1.00
O104   O     0.54632   0.02827   0.76725   0.00000  Uiso   1.00
C105   C     0.55344   0.14237   0.68923   0.00000  Uiso   1.00
C106   C     0.61080   0.01231   0.62183   0.00000  Uiso   1.00
O107   O     0.45261   0.30242   0.23836   0.00000  Uiso   1.00
O108   O     0.55043   0.27230   0.13045   0.00000  Uiso   1.00
C109   C     0.46674   0.36071   0.11855   0.00000  Uiso   1.00
C110   C     0.40211   0.35857   0.46479   0.00000  Uiso   1.00
O111   O     0.55265   0.33221   0.39068   0.00000  Uiso   1.00
C112   C     0.54605   0.46992   0.36075   0.00000  Uiso   1.00
C113   C     0.27571   0.42500   0.63532   0.00000  Uiso   1.00
C114   C     0.28265   0.58063   0.73861   0.00000  Uiso   1.00
C115   C    -0.00145   0.31564   0.43868   0.00000  Uiso   1.00
O116   O     0.45153   0.58996   0.68438   0.00000  Uiso   1.00
C117   C     0.48740   0.47246   0.73324   0.00000  Uiso   1.00
C118   C     0.28365   0.52260   0.02355   0.00000  Uiso   1.00
C119   C     0.31815   0.79194   0.20913   0.00000  Uiso   1.00
C120   C     0.38619   0.96692   0.31224   0.00000  Uiso   1.00
O121   O     0.40239   0.95901   0.15979   0.00000  Uiso   1.00
O122   O     0.23824   0.89430   0.23368   0.00000  Uiso   1.00
C123   C     0.47135   0.77779   0.07124   0.00000  Uiso   1.00
O124   O     0.54869   0.96954   0.07724   0.00000  Uiso   1.00
O125   O     0.35898   0.60414   0.59809   0.00000  Uiso   1.00
C126   C     0.38981   0.71007   0.49797   0.00000  Uiso   1.00
C127   C     0.25198   0.50823   0.47921   0.00000  Uiso   1.00
C128   C     0.19978   0.61559   0.59262   0.00000  Uiso   1.00
C129   C     0.46413   0.65716   0.87258   0.00000  Uiso   1.00
O130   O     0.59479   0.66873   0.76119   0.00000  Uiso   1.00
C131   C     0.39624   0.80931   0.84186   0.00000  Uiso   1.00
O132   O     0.48522   0.85731   0.96303   0.00000  Uiso   1.00
O133   O     0.54589   0.98599   0.88642   0.00000  Uiso   1.00
C134   C     0.36449   0.91730   0.96165   0.00000  Uiso   1.00
C135   C     0.53052   0.82039   0.68013   0.00000  Uiso   1.00
O136   O     0.59528   0.81309   0.80088   0.00000  Uiso   1.00
O137   O     0.64897   0.96589   0.77450   0.00000  Uiso   1.00
C138   C     0.72845   0.87643   0.69107   0.00000  Uiso   1.00
O139   O     0.77360   0.00698   0.22938   0.00000  Uiso   1.00
O140   O     0.56803   0.09216   0.20254   0.00000  Uiso   1.00
C141   C     0.69250   0.29394   0.21786   0.00000  Uiso   1.00
O142   O     0.56230   0.18703   0.32864   0.00000  Uiso   1.00
C143   C     0.91835   0.11954   1.03644   0.00000  Uiso   1.00
O144   O     0.73409  -0.00225   0.10432   0.00000  Uiso   1.00
C145   C     0.79522   0.18518   0.13162   0.00000  Uiso   1.00
C146   C     0.75129   0.09017   0.99117   0.00000  Uiso   1.00
C147   C     0.64240  -0.06251   0.44046   0.00000  Uiso   1.00
C148   C     0.48206   0.96371   0.45133   0.00000  Uiso   1.00
C149   C     0.55658   0.91961   0.31105   0.00000  Uiso   1.00
O150   O     0.83249   0.15989   0.30936   0.00000  Uiso   1.00
O151   O     0.70054   0.17479   0.28899   0.00000  Uiso   1.00
O152   O     0.67696   0.09344   0.39216   0.00000  Uiso   1.00
C153   C     0.87919   0.04580   0.82093   0.00000  Uiso   1.00
C154   C     1.02154   0.03677   0.88015   0.00000  Uiso   1.00
O155   O     0.63037   0.45218   0.19268   0.00000  Uiso   1.00
C156   C     0.76301   0.61431   0.28796   0.00000  Uiso   1.00
C157   C     0.90750   0.41402   0.80463   0.00000  Uiso   1.00
C158   C     0.91399   0.36938  -0.05630   0.00000  Uiso   1.00
C159   C     0.89990   0.44869   0.47685   0.00000  Uiso   1.00
O160   O     0.79394   0.27381   0.39739   0.00000  Uiso   1.00
C161   C     0.94302   0.40958   0.31202   0.00000  Uiso   1.00
O162   O     0.58981   0.48299   0.49734   0.00000  Uiso   1.00
C163   C     0.55169   0.62457   0.52040   0.00000  Uiso   1.00
O164   O     0.60012   0.58467   0.63066   0.00000  Uiso   1.00
O165   O     0.96014   0.47869   0.14492   0.00000  Uiso   1.00
O166   O     0.81784   0.51468   0.17641   0.00000  Uiso   1.00
C167   C     0.76206   0.40134   0.38659   0.00000  Uiso   1.00
C168   C     0.95653   0.59097   0.27495   0.00000  Uiso   1.00
C169   C     1.02165   0.65891   0.14270   0.00000  Uiso   1.00
C170   C     0.66033   0.35063   0.84695   0.00000  Uiso   1.00
O171   O     0.82764   0.45086   0.92836   0.00000  Uiso   1.00
C172   C     0.66024   0.44034   0.99567   0.00000  Uiso   1.00
C173   C     0.96009   0.58578   0.65332   0.00000  Uiso   1.00
C174   C     0.74351   0.66842   0.51847   0.00000  Uiso   1.00
C175   C     0.76889   0.51187   0.61029   0.00000  Uiso   1.00
C176   C     0.77075   0.38260   0.66611   0.00000  Uiso   1.00
O177   O     0.77478   0.62169   0.14395   0.00000  Uiso   1.00
C178   C     1.02658   0.57526  -0.08934   0.00000  Uiso   1.00
C179   C     0.90092   0.68595   0.02875   0.00000  Uiso   1.00
O180   O     0.94512   0.80669   0.15261   0.00000  Uiso   1.00
C181   C     0.56438   0.64637   0.11839   0.00000  Uiso   1.00
C182   C     0.65341   0.74641   0.25395   0.00000  Uiso   1.00
O183   O     0.63618   0.84521   0.16836   0.00000  Uiso   1.00
C184   C     0.45685   0.69534   0.23635   0.00000  Uiso   1.00
C185   C     0.93360   0.89527   1.01031   0.00000  Uiso   1.00
O186   O     0.80161   0.75974   0.08844   0.00000  Uiso   1.00
O187   O     0.81244   0.91319   0.11812   0.00000  Uiso   1.00
O188   O     0.77568   0.54180   0.88822   0.00000  Uiso   1.00
O189   O     0.78783   0.54220   0.75345   0.00000  Uiso   1.00
C190   C     0.92981   0.70069   0.82701   0.00000  Uiso   1.00
O191   O     0.66334   0.77899   0.88384   0.00000  Uiso   1.00
O192   O     0.73474   0.81408   1.00632   0.00000  Uiso   1.00
O193   O     0.81359   0.93397   0.92127   0.00000  Uiso   1.00
O194   O     0.64452   0.89510   0.99608   0.00000  Uiso   1.00
O195   O     1.02358   0.87073   0.76111   0.00000  Uiso   1.00
C196   C     0.99634   0.96529   0.67322   0.00000  Uiso   1.00
C197   C     0.73025   0.64615   0.85077   0.00000  Uiso   1.00
C198   C     0.87318   0.76577   0.67841   0.00000  Uiso   1.00
O199   O     0.88229   0.89213   0.79737   0.00000  Uiso   1.00
H200   H     0.19450   0.93273   0.05795   0.00000  Uiso   1.00
H201   H     0.22022   0.90861   0.12837   0.00000  Uiso   1.00
H202   H     0.31761   1.01963   0.08702   0.00000  Uiso   1.00
H203   H    -0.05326   0.16912   0.16496   0.00000  Uiso   1.00
H204   H    -0.00075   0.11907   0.18717   0.00000  Uiso   1.00
H205   H     0.02278   0.22592   0.23443   0.00000  Uiso   1.00
H206   H     0.28873   0.16754   0.08526   0.00000  Uiso   1.00
H207   H     0.22673   0.19549   0.16203   0.00000  Uiso   1.00
H208   H     0.15535   0.10047   0.09172   0.00000  Uiso   1.00
H209   H     0.21664   0.20222  -0.06721   0.00000  Uiso   1.00
H210   H     0.26605   0.32539  -0.02612   0.00000  Uiso   1.00
H211   H     0.26631   0.25477   0.01748   0.00000  Uiso   1.00
H212   H     0.55468   0.45451  -0.09183   0.00000  Uiso   1.00
H213   H     0.48323   0.45867  -0.02052   0.00000  Uiso   1.00
H214   H     0.45713   0.46294  -0.10216   0.00000  Uiso   1.00
H215   H     0.40643   0.21319   0.81421   0.00000  Uiso   1.00
H216   H     0.44088   0.32114   0.79463   0.00000  Uiso   1.00
H217   H     0.31491   0.22303   0.81306   0.00000  Uiso   1.00
H218   H     0.28550   0.08775   0.45564   0.00000  Uiso   1.00
H219   H     0.16903   0.03362   0.51371   0.00000  Uiso   1.00
H220   H     0.22089   0.14229   0.48967   0.00000  Uiso   1.00
H221   H    -0.05813   0.05015   0.32886   0.00000  Uiso   1.00
H222   H    -0.17766  -0.01568   0.35467   0.00000  Uiso   1.00
H223   H    -0.10340   0.09949   0.39718   0.00000  Uiso   1.00
H224   H     0.10063   0.13025   0.24982   0.00000  Uiso   1.00
H225   H     0.20046   0.25964   0.26307   0.00000  Uiso   1.00
H226   H     0.09487   0.22620   0.31252   0.00000  Uiso   1.00
H227   H     0.21547   0.26972   0.47784   0.00000  Uiso   1.00
H228   H     0.09608   0.21141   0.46549   0.00000  Uiso   1.00
H229   H     0.19411   0.32097   0.42581   0.00000  Uiso   1.00
H230   H     0.12355   0.52095   0.23451   0.00000  Uiso   1.00
H231   H     0.14796   0.62030   0.19761   0.00000  Uiso   1.00
H232   H     0.22095   0.58198   0.16785   0.00000  Uiso   1.00
H233   H     1.08287   0.35766   0.11524   0.00000  Uiso   1.00
H234   H     0.97539   0.32241   0.08356   0.00000  Uiso   1.00
H235   H     0.97337   0.33366   0.17809   0.00000  Uiso   1.00
H236   H     0.28419   0.41155  -0.21123   0.00000  Uiso   1.00
H237   H     0.24082   0.30237  -0.17640   0.00000  Uiso   1.00
H238   H     0.31029   0.42018  -0.12542   0.00000  Uiso   1.00
H239   H     0.04776   0.21691   0.89678   0.00000  Uiso   1.00
H240   H     0.00010   0.27260   0.96168   0.00000  Uiso   1.00
H241   H     0.11027   0.27983   0.97109   0.00000  Uiso   1.00
H242   H     0.11488   0.39584   0.77224   0.00000  Uiso   1.00
H243   H    -0.00256   0.30118   0.82294   0.00000  Uiso   1.00
H244   H     0.08217   0.28340   0.76532   0.00000  Uiso   1.00
H245   H    -0.17169   0.14125   0.67771   0.00000  Uiso   1.00
H246   H    -0.05931   0.24591   0.70188   0.00000  Uiso   1.00
H247   H    -0.10264   0.13762   0.72199   0.00000  Uiso   1.00
H248   H    -0.12544  -0.02705   0.56028   0.00000  Uiso   1.00
H249   H    -0.13720   0.02205   0.49585   0.00000  Uiso   1.00
H250   H    -0.20762   0.00946   0.57714   0.00000  Uiso   1.00
H251   H     0.05537   0.13852   0.65772   0.00000  Uiso   1.00
H252   H     0.13472   0.22755   0.60287   0.00000  Uiso   1.00
H253   H     0.08342   0.11131   0.56484   0.00000  Uiso   1.00
H254   H    -0.19762   0.22877   0.60448   0.00000  Uiso   1.00
H255   H    -0.21311   0.14458   0.52344   0.00000  Uiso   1.00
H256   H    -0.20709   0.24848   0.52394   0.00000  Uiso   1.00
H257   H     0.08153   0.42814   0.59822   0.00000  Uiso   1.00
H258   H    -0.02212   0.36901   0.65444   0.00000  Uiso   1.00
H259   H    -0.01235   0.43474   0.58830   0.00000  Uiso   1.00
H260   H     0.23839   0.69036   0.02265   0.00000  Uiso   1.00
H261   H     0.23058   0.64757  -0.07366   0.00000  Uiso   1.00
H262   H     0.33537   0.69441  -0.02494   0.00000  Uiso   1.00
H263   H     0.86150   0.82123   0.29548   0.00000  Uiso   1.00
H264   H     0.90139   0.92552   0.25907   0.00000  Uiso   1.00
H265   H     0.95845   0.93373   0.32643   0.00000  Uiso   1.00
H266   H     0.25077   0.74601   0.38721   0.00000  Uiso   1.00
H267   H     0.13704   0.64470   0.35003   0.00000  Uiso   1.00
H268   H     0.14776   0.66915   0.43892   0.00000  Uiso   1.00
H269   H     0.24929   0.92776   0.44112   0.00000  Uiso   1.00
H270   H     0.23383   0.86087   0.49784   0.00000  Uiso   1.00
H271   H     0.15729   0.89158   0.50420   0.00000  Uiso   1.00
H272   H     0.00083   0.71305   0.51441   0.00000  Uiso   1.00
H273   H    -0.04904   0.63860   0.43887   0.00000  Uiso   1.00
H274   H    -0.03390   0.74972   0.44539   0.00000  Uiso   1.00
H275   H     0.11480   0.84893   0.85413   0.00000  Uiso   1.00
H276   H     0.23333   0.91949   0.82028   0.00000  Uiso   1.00
H277   H     0.15582   0.79696   0.77945   0.00000  Uiso   1.00
H278   H     0.21050   1.04104   0.68501   0.00000  Uiso   1.00
H279   H     0.28673   1.05867   0.74586   0.00000  Uiso   1.00
H280   H     0.18617   1.06305   0.77802   0.00000  Uiso   1.00
H281   H    -0.03378   0.85322   0.40093   0.00000  Uiso   1.00
H282   H    -0.02406   0.95622   0.45176   0.00000  Uiso   1.00
H283   H     0.02468   0.90345   0.47784   0.00000  Uiso   1.00
H284   H     1.09845   0.84476   0.61963   0.00000  Uiso   1.00
H285   H     1.13131   0.77987   0.65083   0.00000  Uiso   1.00
H286   H     1.22280   0.89834   0.62858   0.00000  Uiso   1.00
H287   H     0.62933   0.17480   0.96465   0.00000  Uiso   1.00
H288   H     0.68029   0.21021   1.04172   0.00000  Uiso   1.00
H289   H     0.69259   0.29955   0.99267   0.00000  Uiso   1.00
H290   H     0.43247   0.28784   0.58879   0.00000  Uiso   1.00
H291   H     0.56536   0.36162   0.56138   0.00000  Uiso   1.00
H292   H     0.50463   0.28227   0.63106   0.00000  Uiso   1.00
H293   H     0.42698   1.08636   0.60428   0.00000  Uiso   1.00
H294   H     0.38146   1.02627   0.51930   0.00000  Uiso   1.00
H295   H     0.33217   1.08895   0.57599   0.00000  Uiso   1.00
H296   H     0.65853   1.26374   0.52691   0.00000  Uiso   1.00
H297   H     0.60901   1.18805   0.44743   0.00000  Uiso   1.00
H298   H     0.58648   1.14322   0.52400   0.00000  Uiso   1.00
H299   H     0.74914   0.15929   0.86770   0.00000  Uiso   1.00
H300   H     0.68069   0.19739   0.85322   0.00000  Uiso   1.00
H301   H     0.74816   0.17542   0.77871   0.00000  Uiso   1.00
H302   H     0.22272   0.07976   0.97817   0.00000  Uiso   1.00
H303   H     0.26241   0.00333   0.96152   0.00000  Uiso   1.00
H304   H     0.26345   0.04716   0.89042   0.00000  Uiso   1.00
H305   H     0.41811   0.04916   0.86520   0.00000  Uiso   1.00
H306   H     0.53215   0.14184   0.89511   0.00000  Uiso   1.00
H307   H     0.48863   0.16135   0.83017   0.00000  Uiso   1.00
H308   H     0.34848  -0.06472   0.71827   0.00000  Uiso   1.00
H309   H     0.37679  -0.14567   0.67190   0.00000  Uiso   1.00
H310   H     0.39214  -0.06050   0.62509   0.00000  Uiso   1.00
H311   H     0.58438   0.17208   0.64115   0.00000  Uiso   1.00
H312   H     0.61130   0.19719   0.72482   0.00000  Uiso   1.00
H313   H     0.48704   0.14440   0.71272   0.00000  Uiso   1.00
H314   H     0.65720   0.00822   0.64716   0.00000  Uiso   1.00
H315   H     0.64938   0.07018   0.58993   0.00000  Uiso   1.00
H316   H     0.56354  -0.05641   0.58698   0.00000  Uiso   1.00
H317   H     0.51758   0.42100   0.08740   0.00000  Uiso   1.00
H318   H     0.41846   0.37698   0.15562   0.00000  Uiso   1.00
H319   H     0.42678   0.29431   0.08456   0.00000  Uiso   1.00
H320   H     0.39877   0.38267   0.52133   0.00000  Uiso   1.00
H321   H     0.36209   0.28298   0.45611   0.00000  Uiso   1.00
H322   H     0.36974   0.37298   0.43308   0.00000  Uiso   1.00
H323   H     0.55860   0.53738   0.38713   0.00000  Uiso   1.00
H324   H     0.47908   0.43373   0.33575   0.00000  Uiso   1.00
H325   H     0.60361   0.47326   0.32069   0.00000  Uiso   1.00
H326   H     0.28384   0.40732   0.58052   0.00000  Uiso   1.00
H327   H     0.19968   0.39651   0.64919   0.00000  Uiso   1.00
H328   H     0.28981   0.39104   0.66475   0.00000  Uiso   1.00
H329   H     0.28632   0.56646   0.78963   0.00000  Uiso   1.00
H330   H     0.20177   0.53351   0.73133   0.00000  Uiso   1.00
H331   H     0.30173   0.65267   0.74669   0.00000  Uiso   1.00
H332   H     0.01858   0.38579   0.43895   0.00000  Uiso   1.00
H333   H    -0.06250   0.27111   0.40805   0.00000  Uiso   1.00
H334   H     0.04803   0.29717   0.42003   0.00000  Uiso   1.00
H335   H     0.43161   0.45796   0.77856   0.00000  Uiso   1.00
H336   H     0.54424   0.46948   0.74700   0.00000  Uiso   1.00
H337   H     0.44341   0.41150   0.69203   0.00000  Uiso   1.00
H338   H     0.31031   0.56905   0.07048   0.00000  Uiso   1.00
H339   H     0.34322   0.54067  -0.02029   0.00000  Uiso   1.00
H340   H     0.24976   0.45163   0.03176   0.00000  Uiso   1.00
H341   H     0.38941   0.80822   0.20612   0.00000  Uiso   1.00
H342   H     0.28896   0.75472   0.15680   0.00000  Uiso   1.00
H343   H     0.27120   0.75174   0.25194   0.00000  Uiso   1.00
H344   H     0.36398   1.01635   0.33258   0.00000  Uiso   1.00
H345   H     0.46562   1.01359   0.30992   0.00000  Uiso   1.00
H346   H     0.36313   0.91050   0.34492   0.00000  Uiso   1.00
H347   H     0.49584   0.79963   0.12158   0.00000  Uiso   1.00
H348   H     0.48579   0.72484   0.04588   0.00000  Uiso   1.00
H349   H     0.39354   0.74019   0.07004   0.00000  Uiso   1.00
H350   H     0.46247   0.72589   0.49287   0.00000  Uiso   1.00
H351   H     0.39836   0.76897   0.52945   0.00000  Uiso   1.00
H352   H     0.37588   0.70553   0.44277   0.00000  Uiso   1.00
H353   H     0.30624   0.49436   0.45213   0.00000  Uiso   1.00
H354   H     0.23558   0.52788   0.43806   0.00000  Uiso   1.00
H355   H     0.18577   0.44205   0.49442   0.00000  Uiso   1.00
H356   H     0.23202   0.69015   0.60758   0.00000  Uiso   1.00
H357   H     0.17208   0.58675   0.64412   0.00000  Uiso   1.00
H358   H     0.13891   0.59062   0.56423   0.00000  Uiso   1.00
H359   H     0.47183   0.68838   0.92610   0.00000  Uiso   1.00
H360   H     0.44904   0.58605   0.87436   0.00000  Uiso   1.00
H361   H     0.41233   0.66295   0.85659   0.00000  Uiso   1.00
H362   H     0.43271   0.77662   0.81961   0.00000  Uiso   1.00
H363   H     0.39425   0.84491   0.80296   0.00000  Uiso   1.00
H364   H     0.32516   0.76090   0.86300   0.00000  Uiso   1.00
H365   H     0.31428   0.90383   0.92442   0.00000  Uiso   1.00
H366   H     0.39849   0.98643   0.99055   0.00000  Uiso   1.00
H367   H     0.31868   0.86721   1.00053   0.00000  Uiso   1.00
H368   H     0.48883   0.84695   0.68569   0.00000  Uiso   1.00
H369   H     0.47912   0.74539   0.69350   0.00000  Uiso   1.00
H370   H     0.57231   0.83455   0.62933   0.00000  Uiso   1.00
H371   H     0.77513   0.89042   0.72739   0.00000  Uiso   1.00
H372   H     0.76763   0.93808   0.66599   0.00000  Uiso   1.00
H373   H     0.70868   0.81277   0.64962   0.00000  Uiso   1.00
H374   H     0.68136   0.27608   0.16252   0.00000  Uiso   1.00
H375   H     0.76946   0.33907   0.22812   0.00000  Uiso   1.00
H376   H     0.65990   0.32888   0.24234   0.00000  Uiso   1.00
H377   H     0.92343   0.11676   0.98216   0.00000  Uiso   1.00
H378   H     0.93161   0.07574   1.05432   0.00000  Uiso   1.00
H379   H     0.96686   0.18948   1.05627   0.00000  Uiso   1.00
H380   H     0.72012   0.16333   0.13504   0.00000  Uiso   1.00
H381   H     0.83085   0.24808   0.10660   0.00000  Uiso   1.00
H382   H     0.82067   0.19674   0.18130   0.00000  Uiso   1.00
H383   H     0.74474   0.03152   0.95027   0.00000  Uiso   1.00
H384   H     0.80615   0.15892   0.97208   0.00000  Uiso   1.00
H385   H     0.68766   0.08854   1.00420   0.00000  Uiso   1.00
H386   H     0.57806  -0.12046   0.46623   0.00000  Uiso   1.00
H387   H     0.69382  -0.00795   0.47984   0.00000  Uiso   1.00
H388   H     0.67122  -0.09998   0.40340   0.00000  Uiso   1.00
H389   H     0.46822   1.00402   0.43180   0.00000  Uiso   1.00
H390   H     0.48905   0.97544   0.50753   0.00000  Uiso   1.00
H391   H     0.42437   0.89033   0.43490   0.00000  Uiso   1.00
H392   H     0.57668   0.96301   0.26936   0.00000  Uiso   1.00
H393   H     0.47818   0.87241   0.31703   0.00000  Uiso   1.00
H394   H     0.58760   0.88134   0.29491   0.00000  Uiso   1.00
H395   H     0.80249   0.01342   0.82048   0.00000  Uiso   1.00
H396   H     0.92837   0.06351   0.77146   0.00000  Uiso   1.00
H397   H     0.90768   0.11233   0.85295   0.00000  Uiso   1.00
H398   H     1.02955   0.07679   0.92872   0.00000  Uiso   1.00
H399   H     1.06835   0.09041   0.84394   0.00000  Uiso   1.00
H400   H     1.04019  -0.00867   0.88241   0.00000  Uiso   1.00
H401   H     0.75654   0.57561   0.32967   0.00000  Uiso   1.00
H402   H     0.72157   0.64480   0.29827   0.00000  Uiso   1.00
H403   H     0.83929   0.67883   0.28771   0.00000  Uiso   1.00
H404   H     0.89209   0.46048   0.78897   0.00000  Uiso   1.00
H405   H     0.84622   0.33642   0.79390   0.00000  Uiso   1.00
H406   H     0.96988   0.42498   0.76617   0.00000  Uiso   1.00
H407   H     0.98596   0.38276  -0.05849   0.00000  Uiso   1.00
H408   H     0.85658   0.29871  -0.08310   0.00000  Uiso   1.00
H409   H     0.88473   0.37616   0.00095   0.00000  Uiso   1.00
H410   H     0.85784   0.40154   0.51724   0.00000  Uiso   1.00
H411   H     0.89446   0.50824   0.48971   0.00000  Uiso   1.00
H412   H     0.97899   0.47595   0.47807   0.00000  Uiso   1.00
H413   H     0.91141   0.40072   0.26390   0.00000  Uiso   1.00
H414   H     0.95302   0.35352   0.30561   0.00000  Uiso   1.00
H415   H     1.00947   0.47990   0.32283   0.00000  Uiso   1.00
H416   H     0.54042   0.66723   0.56881   0.00000  Uiso   1.00
H417   H     0.48291   0.56269   0.49900   0.00000  Uiso   1.00
H418   H     0.59551   0.66639   0.47926   0.00000  Uiso   1.00
H419   H     0.70087   0.36685   0.42660   0.00000  Uiso   1.00
H420   H     0.73189   0.37304   0.33890   0.00000  Uiso   1.00
H421   H     0.79723   0.47540   0.39470   0.00000  Uiso   1.00
H422   H     0.94763   0.64837   0.30061   0.00000  Uiso   1.00
H423   H     1.02927   0.61145   0.28404   0.00000  Uiso   1.00
H424   H     0.90653   0.53161   0.30145   0.00000  Uiso   1.00
H425   H     0.98712   0.69570   0.14820   0.00000  Uiso   1.00
H426   H     1.04413   0.64686   0.08323   0.00000  Uiso   1.00
H427   H     1.08727   0.70190   0.16920   0.00000  Uiso   1.00
H428   H     0.59666   0.29613   0.87226   0.00000  Uiso   1.00
H429   H     0.69521   0.31565   0.81948   0.00000  Uiso   1.00
H430   H     0.64264   0.37141   0.80968   0.00000  Uiso   1.00
H431   H     0.63144   0.48033   0.99311   0.00000  Uiso   1.00
H432   H     0.69919   0.47656   1.04164   0.00000  Uiso   1.00
H433   H     0.60358   0.36997   0.99983   0.00000  Uiso   1.00
H434   H     0.97329   0.65441   0.65169   0.00000  Uiso   1.00
H435   H     0.97798   0.55541   0.60080   0.00000  Uiso   1.00
H436   H     1.00046   0.58622   0.69434   0.00000  Uiso   1.00
H437   H     0.78960   0.64825   0.52306   0.00000  Uiso   1.00
H438   H     0.77295   0.74228   0.54856   0.00000  Uiso   1.00
H439   H     0.74525   0.67449   0.46270   0.00000  Uiso   1.00
H440   H     0.68911   0.48426   0.62895   0.00000  Uiso   1.00
H441   H     0.76900   0.46645   0.56139   0.00000  Uiso   1.00
H442   H     0.79950   0.58119   0.59548   0.00000  Uiso   1.00
H443   H     0.75647   0.35281   0.71128   0.00000  Uiso   1.00
H444   H     0.82350   0.37870   0.63171   0.00000  Uiso   1.00
H445   H     0.70368   0.34950   0.64174   0.00000  Uiso   1.00
H446   H     1.00540   0.62532  -0.07941   0.00000  Uiso   1.00
H447   H     1.07301   0.58793  -0.13848   0.00000  Uiso   1.00
H448   H     1.04998   0.57442  -0.04120   0.00000  Uiso   1.00
H449   H     0.97889   0.73699   0.02144   0.00000  Uiso   1.00
H450   H     0.87220   0.68600  -0.01604   0.00000  Uiso   1.00
H451   H     0.86761   0.61258   0.02501   0.00000  Uiso   1.00
H452   H     0.48480   0.58914   0.12304   0.00000  Uiso   1.00
H453   H     0.60858   0.62654   0.12660   0.00000  Uiso   1.00
H454   H     0.56797   0.65004   0.06125   0.00000  Uiso   1.00
H455   H     0.68570   0.81481   0.29051   0.00000  Uiso   1.00
H456   H     0.71908   0.74812   0.22346   0.00000  Uiso   1.00
H457   H     0.61548   0.69039   0.28470   0.00000  Uiso   1.00
H458   H     0.45178   0.73567   0.28422   0.00000  Uiso   1.00
H459   H     0.42926   0.62989   0.25459   0.00000  Uiso   1.00
H460   H     0.40990   0.67900   0.19861   0.00000  Uiso   1.00
H461   H     0.98323   0.91415   1.04854   0.00000  Uiso   1.00
H462   H     0.95609   0.96134   0.99844   0.00000  Uiso   1.00
H463   H     0.93429   0.85069   0.96638   0.00000  Uiso   1.00
H464   H     0.96477   0.70473   0.77569   0.00000  Uiso   1.00
H465   H     0.96164   0.69149   0.86259   0.00000  Uiso   1.00
H466   H     0.92505   0.75784   0.85318   0.00000  Uiso   1.00
H467   H     0.94044   0.96517   0.65067   0.00000  Uiso   1.00
H468   H     1.03029   0.94167   0.62864   0.00000  Uiso   1.00
H469   H     1.05035   1.03500   0.70262   0.00000  Uiso   1.00
H470   H     0.74605   0.68397   0.81063   0.00000  Uiso   1.00
H471   H     0.74806   0.69261   0.90050   0.00000  Uiso   1.00
H472   H     0.65590   0.58535   0.85383   0.00000  Uiso   1.00
H473   H     0.91605   0.75675   0.63290   0.00000  Uiso   1.00
H474   H     0.81946   0.76714   0.65439   0.00000  Uiso   1.00
H475   H     0.83504   0.70155   0.70575   0.00000  Uiso   1.00
loop_
_geom_bond_atom_site_label_1
_geom_bond_atom_site_label_2
_geom_bond_distance
_geom_bond_site_symmetry_2
_ccdc_geom_bond_type
Si1    C54     1.913   .     S
Si1    O89     1.670   .     S
Si1    C52     1.829   1_545 S
Si1    O77     1.659   1_545 S
Si2    C53     1.896   .     S
Si2    C59     1.911   .     S
Si2    O139    1.598   1_455 S
Si2    O150    1.534   1_455 S
Si3    C55     1.885   .     S
Si3    C56     1.829   .     S
Si3    C57     1.823   1_554 S
Si3    O102    1.565   1_554 S
Si4    C58     1.829   .     S
Si4    O61     1.609   .     S
Si4    C84     1.895   1_545 S
Si4    O88     1.587   1_545 S
Si5    C60     1.851   .     S
Si5    O61     1.568   .     S
Si5    C62     1.915   .     S
Si5    O90     1.566   .     S
Si6    C63     1.891   .     S
Si6    O74     1.588   .     S
Si6    C64     1.805   1_455 S
Si6    O165    1.616   1_455 S
Si7    C65     1.891   .     S
Si7    O75     1.600   .     S
Si7    C66     1.865   1_554 S
Si7    C67     1.872   1_554 S
Si8    C68     1.891   .     S
Si8    C69     1.886   .     S
Si8    C70     1.894   .     S
Si8    O72     1.622   .     S
Si9    C71     1.846   .     S
Si9    O72     1.602   .     S
Si9    C73     1.911   .     S
Si9    C115    1.917   .     S
Si10   O74     1.630   .     S
Si10   O75     1.531   .     S
Si10   C76     1.883   .     S
Si10   C118    1.904   .     S
Si11   O77     1.648   .     S
Si11   O86     1.628   .     S
Si11   C78     1.851   1_455 S
Si11   O180    1.625   1_455 S
Si12   C79     1.836   .     S
Si12   C80     1.844   .     S
Si12   C81     1.822   .     S
Si12   O87     1.625   .     S
Si13   C82     1.882   .     S
Si13   C83     1.842   .     S
Si13   C85     1.868   1_455 S
Si13   O195    1.578   1_455 S
Si14   O86     1.635   .     S
Si14   O87     1.616   .     S
Si14   O88     1.590   .     S
Si14   O122    1.614   .     S
Si15   O91     1.587   .     S
Si15   O140    1.687   .     S
Si15   O121    1.583   1_545 S
Si15   O124    1.665   1_545 S
Si16   O89     1.624   .     S
Si16   O90     1.599   .     S
Si16   O96     1.622   .     S
Si16   O107    1.687   .     S
Si17   O91     1.668   .     S
Si17   O108    1.610   .     S
Si17   C92     1.832   1_554 S
Si17   O100    1.633   1_554 S
Si18   C93     1.834   .     S
Si18   O97     1.593   .     S
Si18   C94     1.911   1_545 S
Si18   C95     1.812   1_545 S
Si19   O96     1.593   .     S
Si19   O97     1.633   .     S
Si19   O111    1.627   .     S
Si19   O142    1.565   .     S
Si20   C98     1.840   .     S
Si20   O104    1.591   .     S
Si20   O133    1.626   1_545 S
Si20   O137    1.653   1_545 S
Si21   C99     1.881   .     S
Si21   O100    1.617   .     S
Si21   C101    1.852   .     S
Si21   O102    1.568   .     S
Si22   C103    1.905   .     S
Si22   O104    1.605   .     S
Si22   C105    1.844   .     S
Si22   C106    1.882   .     S
Si23   O107    1.607   .     S
Si23   O108    1.615   .     S
Si23   C109    1.859   .     S
Si23   O155    1.647   .     S
Si24   C110    1.867   .     S
Si24   O111    1.671   .     S
Si24   C112    1.814   .     S
Si24   O162    1.636   .     S
Si25   C113    1.854   .     S
Si25   C114    1.883   .     S
Si25   O116    1.607   .     S
Si25   O125    1.643   .     S
Si26   O116    1.636   .     S
Si26   C117    1.864   .     S
Si26   O130    1.607   .     S
Si26   O164    1.604   .     S
Si27   C119    1.858   .     S
Si27   C120    1.841   .     S
Si27   O121    1.603   .     S
Si27   O122    1.583   .     S
Si28   C123    1.814   .     S
Si28   O124    1.661   .     S
Si28   O132    1.567   1_554 S
Si28   O194    1.631   1_554 S
Si29   O125    1.579   .     S
Si29   C126    1.877   .     S
Si29   C127    1.803   .     S
Si29   C128    1.910   .     S
Si30   C129    1.859   .     S
Si30   O130    1.585   .     S
Si30   O136    1.566   .     S
Si30   O191    1.613   .     S
Si31   C131    1.834   .     S
Si31   O132    1.631   .     S
Si31   O133    1.557   .     S
Si31   C134    1.813   .     S
Si32   C135    1.861   .     S
Si32   O136    1.539   .     S
Si32   O137    1.552   .     S
Si32   C138    1.811   .     S
Si33   O139    1.607   .     S
Si33   O144    1.631   .     S
Si33   O183    1.635   1_545 S
Si33   O187    1.615   1_545 S
Si34   O140    1.648   .     S
Si34   C141    1.901   .     S
Si34   O142    1.587   .     S
Si34   O151    1.592   .     S
Si35   O144    1.591   .     S
Si35   C145    1.872   .     S
Si35   C143    1.852   1_554 S
Si35   C146    1.862   1_554 S
Si36   C147    1.900   .     S
Si36   O152    1.590   .     S
Si36   C148    1.867   1_545 S
Si36   C149    1.868   1_545 S
Si37   O150    1.619   .     S
Si37   O151    1.568   .     S
Si37   O152    1.547   .     S
Si37   O160    1.646   .     S
Si38   C153    1.811   .     S
Si38   C154    1.898   .     S
Si38   O193    1.621   1_545 S
Si38   O199    1.539   1_545 S
Si39   O155    1.648   .     S
Si39   C156    1.940   .     S
Si39   O166    1.623   .     S
Si39   O177    1.673   .     S
Si40   C158    1.835   .     S
Si40   C178    1.845   .     S
Si40   C157    1.850   1_554 S
Si40   O171    1.601   1_554 S
Si41   C159    1.886   .     S
Si41   O160    1.578   .     S
Si41   C161    1.916   .     S
Si41   C167    1.784   .     S
Si42   O162    1.656   .     S
Si42   C163    1.921   .     S
Si42   O164    1.603   .     S
Si42   C174    1.840   .     S
Si43   O165    1.608   .     S
Si43   O166    1.659   .     S
Si43   C168    1.902   .     S
Si43   C169    1.867   .     S
Si44   C170    1.883   .     S
Si44   O171    1.609   .     S
Si44   C172    1.873   .     S
Si44   O188    1.547   .     S
Si45   C173    1.884   .     S
Si45   C175    1.874   .     S
Si45   C176    1.883   .     S
Si45   O189    1.599   .     S
Si46   O177    1.651   .     S
Si46   C179    1.881   .     S
Si46   O180    1.641   .     S
Si46   O186    1.543   .     S
Si47   C181    1.863   .     S
Si47   C182    1.915   .     S
Si47   O183    1.594   .     S
Si47   C184    1.945   .     S
Si48   O186    1.628   .     S
Si48   O187    1.545   .     S
Si48   C185    1.871   1_554 S
Si48   O192    1.595   1_554 S
Si49   O188    1.607   .     S
Si49   O189    1.561   .     S
Si49   C190    1.824   .     S
Si49   C197    1.820   .     S
Si50   O191    1.633   .     S
Si50   O192    1.644   .     S
Si50   O193    1.599   .     S
Si50   O194    1.701   .     S
Si51   O195    1.602   .     S
Si51   C196    1.908   .     S
Si51   C198    1.845   .     S
Si51   O199    1.561   .     S
C52    H200    1.141   .     S
C52    H201    1.132   .     S
C52    H202    1.147   .     S
C52    Si1     1.829   1_565 S
C53    H203    1.093   .     S
C53    H204    1.073   .     S
C53    H205    1.132   .     S
C54    H206    1.114   .     S
C54    H207    1.149   .     S
C54    H208    1.117   .     S
C55    H209    1.128   .     S
C55    H210    1.131   .     S
C55    H211    1.131   .     S
C56    H212    1.090   .     S
C56    H213    1.066   .     S
C56    H214    1.142   .     S
C57    H215    1.092   .     S
C57    H216    1.095   .     S
C57    H217    1.081   .     S
C57    Si3     1.823   1_556 S
C58    H218    1.158   .     S
C58    H219    1.126   .     S
C58    H220    1.132   .     S
C59    H221    1.041   .     S
C59    H222    1.103   .     S
C59    H223    1.120   .     S
C60    H224    1.148   .     S
C60    H225    1.091   .     S
C60    H226    1.109   .     S
C62    H227    1.044   .     S
C62    H228    1.111   .     S
C62    H229    1.134   .     S
C63    H230    1.127   .     S
C63    H231    1.071   .     S
C63    H232    1.071   .     S
C64    H233    1.127   .     S
C64    H234    1.123   .     S
C64    H235    1.096   .     S
C64    Si6     1.805   1_655 S
C65    H236    1.149   .     S
C65    H237    1.125   .     S
C65    H238    1.152   .     S
C66    H239    1.119   .     S
C66    H240    1.153   .     S
C66    H241    1.114   .     S
C66    Si7     1.865   1_556 S
C67    H242    1.123   .     S
C67    H243    1.142   .     S
C67    H244    1.068   .     S
C67    Si7     1.872   1_556 S
C68    H245    1.058   .     S
C68    H246    1.105   .     S
C68    H247    1.040   .     S
C69    H248    1.136   .     S
C69    H249    1.112   .     S
C69    H250    1.102   .     S
C70    H251    1.113   .     S
C70    H252    1.079   .     S
C70    H253    1.105   .     S
C71    H254    1.100   .     S
C71    H255    1.130   .     S
C71    H256    1.103   .     S
C73    H257    1.080   .     S
C73    H258    1.128   .     S
C73    H259    1.098   .     S
C76    H260    1.098   .     S
C76    H261    1.096   .     S
C76    H262    1.125   .     S
O77    Si1     1.659   1_565 S
C78    H263    1.137   .     S
C78    H264    1.066   .     S
C78    H265    1.081   .     S
C78    Si11    1.851   1_655 S
C79    H266    1.095   .     S
C79    H267    1.098   .     S
C79    H268    1.077   .     S
C80    H269    1.076   .     S
C80    H270    1.037   .     S
C80    H271    1.060   .     S
C81    H272    1.149   .     S
C81    H273    1.091   .     S
C81    H274    1.152   .     S
C82    H275    1.115   .     S
C82    H276    1.096   .     S
C82    H277    1.076   .     S
C83    H278    1.161   .     S
C83    H279    1.089   .     S
C83    H280    1.080   .     S
C84    H281    1.103   .     S
C84    H282    1.098   .     S
C84    H283    1.091   .     S
C84    Si4     1.895   1_565 S
C85    H284    1.093   .     S
C85    H285    1.117   .     S
C85    H286    1.150   .     S
C85    Si13    1.868   1_655 S
O88    Si4     1.587   1_565 S
C92    H287    1.127   .     S
C92    H288    1.121   .     S
C92    H289    1.123   .     S
C92    Si17    1.832   1_556 S
C93    H290    1.099   .     S
C93    H291    1.165   .     S
C93    H292    1.126   .     S
C94    H293    1.115   .     S
C94    H294    1.081   .     S
C94    H295    1.134   .     S
C94    Si18    1.911   1_565 S
C95    H296    1.052   .     S
C95    H297    1.066   .     S
C95    H298    1.098   .     S
C95    Si18    1.812   1_565 S
C98    H299    1.089   .     S
C98    H300    1.107   .     S
C98    H301    1.094   .     S
C99    H302    1.078   .     S
C99    H303    1.155   .     S
C99    H304    1.124   .     S
O100   Si17    1.633   1_556 S
C101   H305    1.118   .     S
C101   H306    1.132   .     S
C101   H307    1.115   .     S
O102   Si3     1.565   1_556 S
C103   H308    1.103   .     S
C103   H309    1.116   .     S
C103   H310    1.124   .     S
C105   H311    1.074   .     S
C105   H312    1.133   .     S
C105   H313    1.168   .     S
C106   H314    1.074   .     S
C106   H315    1.108   .     S
C106   H316    1.152   .     S
C109   H317    1.131   .     S
C109   H318    1.124   .     S
C109   H319    1.101   .     S
C110   H320    1.105   .     S
C110   H321    1.092   .     S
C110   H322    1.078   .     S
C112   H323    1.115   .     S
C112   H324    1.102   .     S
C112   H325    1.119   .     S
C113   H326    1.061   .     S
C113   H327    1.092   .     S
C113   H328    1.079   .     S
C114   H329    1.114   .     S
C114   H330    1.154   .     S
C114   H331    1.113   .     S
C115   H332    1.093   .     S
C115   H333    1.082   .     S
C115   H334    1.066   .     S
C117   H335    1.120   .     S
C117   H336    1.108   .     S
C117   H337    1.146   .     S
C118   H338    1.068   .     S
C118   H339    1.133   .     S
C118   H340    1.082   .     S
C119   H341    1.080   .     S
C119   H342    1.129   .     S
C119   H343    1.093   .     S
C120   H344    1.133   .     S
C120   H345    1.109   .     S
C120   H346    1.147   .     S
O121   Si15    1.583   1_565 S
C123   H347    1.059   .     S
C123   H348    1.113   .     S
C123   H349    1.099   .     S
O124   Si15    1.665   1_565 S
C126   H350    1.103   .     S
C126   H351    1.043   .     S
C126   H352    1.138   .     S
C127   H353    1.116   .     S
C127   H354    1.099   .     S
C127   H355    1.110   .     S
C128   H356    1.098   .     S
C128   H357    1.128   .     S
C128   H358    1.095   .     S
C129   H359    1.073   .     S
C129   H360    1.153   .     S
C129   H361    1.077   .     S
C131   H362    1.072   .     S
C131   H363    1.122   .     S
C131   H364    1.066   .     S
O132   Si28    1.567   1_556 S
O133   Si20    1.626   1_565 S
C134   H365    1.135   .     S
C134   H366    1.084   .     S
C134   H367    1.116   .     S
C135   H368    1.056   .     S
C135   H369    1.153   .     S
C135   H370    1.092   .     S
O137   Si20    1.653   1_565 S
C138   H371    1.072   .     S
C138   H372    1.075   .     S
C138   H373    1.153   .     S
O139   Si2     1.598   1_655 S
C141   H374    1.090   .     S
C141   H375    1.113   .     S
C141   H376    1.059   .     S
C143   H377    1.048   .     S
C143   H378    1.082   .     S
C143   H379    1.053   .     S
C143   Si35    1.852   1_556 S
C145   H380    1.108   .     S
C145   H381    1.099   .     S
C145   H382    1.084   .     S
C146   H383    1.137   .     S
C146   H384    1.118   .     S
C146   H385    1.065   .     S
C146   Si35    1.862   1_556 S
C147   H386    1.105   .     S
C147   H387    1.127   .     S
C147   H388    1.125   .     S
C148   H389    1.050   .     S
C148   H390    1.099   .     S
C148   H391    1.110   .     S
C148   Si36    1.867   1_565 S
C149   H392    1.121   .     S
C149   H393    1.095   .     S
C149   H394    1.065   .     S
C149   Si36    1.868   1_565 S
O150   Si2     1.534   1_655 S
C153   H395    1.094   .     S
C153   H396    1.121   .     S
C153   H397    1.081   .     S
C154   H398    1.040   .     S
C154   H399    1.117   .     S
C154   H400    1.054   .     S
C156   H401    1.141   .     S
C156   H402    1.102   .     S
C156   H403    1.133   .     S
C157   H404    1.132   .     S
C157   H405    1.154   .     S
C157   H406    1.124   .     S
C157   Si40    1.850   1_556 S
C158   H407    1.116   .     S
C158   H408    1.144   .     S
C158   H409    1.150   .     S
C159   H410    1.105   .     S
C159   H411    1.100   .     S
C159   H412    1.156   .     S
C161   H413    1.127   .     S
C161   H414    1.098   .     S
C161   H415    1.110   .     S
C163   H416    1.145   .     S
C163   H417    1.126   .     S
C163   H418    1.071   .     S
O165   Si6     1.616   1_655 S
C167   H419    1.110   .     S
C167   H420    1.044   .     S
C167   H421    1.077   .     S
C168   H422    1.127   .     S
C168   H423    1.129   .     S
C168   H424    1.066   .     S
C169   H425    1.104   .     S
C169   H426    1.171   .     S
C169   H427    1.091   .     S
C170   H428    1.070   .     S
C170   H429    1.104   .     S
C170   H430    1.061   .     S
O171   Si40    1.601   1_556 S
C172   H431    1.106   .     S
C172   H432    1.082   .     S
C172   H433    1.059   .     S
C173   H434    1.123   .     S
C173   H435    1.133   .     S
C173   H436    1.170   .     S
C174   H437    1.080   .     S
C174   H438    1.162   .     S
C174   H439    1.122   .     S
C175   H440    1.165   .     S
C175   H441    1.116   .     S
C175   H442    1.114   .     S
C176   H443    1.053   .     S
C176   H444    1.050   .     S
C176   H445    1.105   .     S
C178   H446    1.126   .     S
C178   H447    1.096   .     S
C178   H448    1.113   .     S
C179   H449    1.098   .     S
C179   H450    1.100   .     S
C179   H451    1.076   .     S
O180   Si11    1.625   1_655 S
C181   H452    1.134   .     S
C181   H453    1.069   .     S
C181   H454    1.130   .     S
C182   H455    1.141   .     S
C182   H456    1.160   .     S
C182   H457    1.070   .     S
O183   Si33    1.635   1_565 S
C184   H458    1.077   .     S
C184   H459    1.096   .     S
C184   H460    1.082   .     S
C185   H461    1.110   .     S
C185   H462    1.078   .     S
C185   H463    1.044   .     S
C185   Si48    1.871   1_556 S
O187   Si33    1.615   1_565 S
C190   H464    1.061   .     S
C190   H465    1.070   .     S
C190   H466    1.085   .     S
O192   Si48    1.595   1_556 S
O193   Si38    1.621   1_565 S
O194   Si28    1.631   1_556 S
O195   Si13    1.578   1_655 S
C196   H467    1.145   .     S
C196   H468    1.103   .     S
C196   H469    1.139   .     S
C197   H470    1.048   .     S
C197   H471    1.099   .     S
C197   H472    1.093   .     S
C198   H473    1.090   .     S
C198   H474    1.143   .     S
C198   H475    1.138   .     S
O199   Si38    1.539   1_565 S
