data_333-7-11-18-15-30-8
_audit_creation_date              2025-03-07
_audit_creation_method            'Materials Studio'
_symmetry_space_group_name_H-M    'P1'
_symmetry_Int_Tables_number       1
_symmetry_cell_setting            triclinic
loop_
_symmetry_equiv_pos_as_xyz
  x,y,z
_cell_length_a                    16.0896
_cell_length_b                    15.8049
_cell_length_c                    21.0381
_cell_angle_alpha                 92.0333
_cell_angle_beta                  91.0515
_cell_angle_gamma                 98.9597
loop_
_atom_site_label
_atom_site_type_symbol
_atom_site_fract_x
_atom_site_fract_y
_atom_site_fract_z
_atom_site_U_iso_or_equiv
_atom_site_adp_type
_atom_site_occupancy
Si1    Si   -0.06295   0.19316   0.23827   0.00000  Uiso   1.00
Si2    Si    0.18301   0.15289   0.03605   0.00000  Uiso   1.00
Si3    Si    0.15409   0.15087   0.69069   0.00000  Uiso   1.00
Si4    Si   -0.05397  -0.01803   0.94828   0.00000  Uiso   1.00
Si5    Si    0.23281   0.55375  -0.07098   0.00000  Uiso   1.00
Si6    Si   -0.01402   0.51300   0.53693   0.00000  Uiso   1.00
Si7    Si    0.14259   0.49107   0.27473   0.00000  Uiso   1.00
Si8    Si    0.35734   0.40553   0.78447   0.00000  Uiso   1.00
Si9    Si    0.05840   0.56772   0.85915   0.00000  Uiso   1.00
Si10   Si    0.15576   0.57233   0.59488   0.00000  Uiso   1.00
Si11   Si    0.20826   0.66242   0.04853   0.00000  Uiso   1.00
Si12   Si   -0.15234   0.78302   0.31425   0.00000  Uiso   1.00
Si13   Si   -0.12559   0.76061   0.56016   0.00000  Uiso   1.00
Si14   Si    0.53024   0.07457   0.00933   0.00000  Uiso   1.00
Si15   Si    0.62565   0.22999  -0.05654   0.00000  Uiso   1.00
Si16   Si    0.51353   0.17066   0.58901   0.00000  Uiso   1.00
Si17   Si    0.33754  -0.11689   0.72764   0.00000  Uiso   1.00
Si18   Si    0.13642   0.00100   0.94386   0.00000  Uiso   1.00
Si19   Si    0.55772   0.38924  -0.00276   0.00000  Uiso   1.00
Si20   Si    0.27562   0.39774   0.21493   0.00000  Uiso   1.00
Si21   Si    0.58421   0.57364  -0.05590   0.00000  Uiso   1.00
Si22   Si    0.61436   0.30891   0.51019   0.00000  Uiso   1.00
Si23   Si    0.29659   0.49994   0.53313   0.00000  Uiso   1.00
Si24   Si    0.41823   0.57099   0.86533   0.00000  Uiso   1.00
Si25   Si    0.56511   0.71851   0.04737   0.00000  Uiso   1.00
Si26   Si    0.26505   0.82978   0.11962   0.00000  Uiso   1.00
Si27   Si    0.58195   0.89817  -0.01429   0.00000  Uiso   1.00
Si28   Si    0.43092   0.63761   0.48317   0.00000  Uiso   1.00
Si29   Si    0.37968   0.82550   0.23709   0.00000  Uiso   1.00
Si30   Si    0.52730   0.69053   0.77918   0.00000  Uiso   1.00
Si31   Si    0.45189   0.77576   0.66775   0.00000  Uiso   1.00
Si32   Si    0.78197   0.08075   0.17392   0.00000  Uiso   1.00
Si33   Si    0.61719  -0.14231   0.44200   0.00000  Uiso   1.00
Si34   Si    0.87965   0.23444   0.59209   0.00000  Uiso   1.00
Si35   Si    0.93991   0.21144   0.37984   0.00000  Uiso   1.00
Si36   Si    0.70974  -0.06815   0.70623   0.00000  Uiso   1.00
Si37   Si    1.05478   0.26849   0.77063   0.00000  Uiso   1.00
Si38   Si    0.87383   0.44919   0.05435   0.00000  Uiso   1.00
Si39   Si    0.66281   0.38374   0.29538   0.00000  Uiso   1.00
Si40   Si    0.88660   0.55744  -0.06447   0.00000  Uiso   1.00
Si41   Si    0.89006   0.34358   0.47318   0.00000  Uiso   1.00
Si42   Si    0.71262   0.45917   0.58032   0.00000  Uiso   1.00
Si43   Si    0.79749   0.45711   0.39679   0.00000  Uiso   1.00
Si44   Si    0.97456   0.42620   0.75967   0.00000  Uiso   1.00
Si45   Si    0.72470   0.54959   0.84482   0.00000  Uiso   1.00
Si46   Si    0.87755   0.50667   0.65454   0.00000  Uiso   1.00
Si47   Si    0.76544   0.60622   0.48805   0.00000  Uiso   1.00
Si48   Si    0.56997   0.76073   0.56136   0.00000  Uiso   1.00
Si49   Si    0.69122   0.70826   0.38862   0.00000  Uiso   1.00
Si50   Si    0.79698   0.64224   0.73076   0.00000  Uiso   1.00
Si51   Si    0.72610   0.75904   0.64370   0.00000  Uiso   1.00
C52    C     0.01041   0.11101   0.23920   0.00000  Uiso   1.00
C53    C    -0.03763   0.27692   0.17942   0.00000  Uiso   1.00
C54    C     0.26252   0.23011  -0.00117   0.00000  Uiso   1.00
C55    C     0.08713   0.20623   0.02187   0.00000  Uiso   1.00
C56    C     0.19864   0.14241   1.12183   0.00000  Uiso   1.00
C57    C     0.26055   0.14462   0.72142   0.00000  Uiso   1.00
C58    C     0.16350   0.16700   0.60115   0.00000  Uiso   1.00
C59    C    -0.11460   0.07063   0.96025   0.00000  Uiso   1.00
C60    C    -0.06168   0.91580   1.01881   0.00000  Uiso   1.00
C61    C    -0.08796   0.90431   0.88422   0.00000  Uiso   1.00
C62    C     0.22605   0.45984  -0.02436   0.00000  Uiso   1.00
C63    C     0.00366   0.59101   0.47247   0.00000  Uiso   1.00
C64    C     0.05675   0.53509   0.22997   0.00000  Uiso   1.00
C65    C     0.09150   0.40929   0.32729   0.00000  Uiso   1.00
C66    C     0.20779   0.59197   0.30746   0.00000  Uiso   1.00
C67    C     0.31061   0.31113   0.82887   0.00000  Uiso   1.00
C68    C     0.43017   0.36518   0.72728   0.00000  Uiso   1.00
O69    O     0.14928   0.54173   0.88264   0.00000  Uiso   1.00
C70    C     0.07570   0.68416   0.84556   0.00000  Uiso   1.00
O71    O     0.07235   0.51137   0.56973   0.00000  Uiso   1.00
C72    C     0.27660   0.44629   0.73649   0.00000  Uiso   1.00
C73    C     0.14234   0.59560   0.67834   0.00000  Uiso   1.00
C74    C     0.17210   0.67947   0.55597   0.00000  Uiso   1.00
C75    C     0.24236   0.58910   0.10627   0.00000  Uiso   1.00
O76    O     0.22667   0.63340  -0.02256   0.00000  Uiso   1.00
C77    C     0.09218   0.66109   0.06285   0.00000  Uiso   1.00
C78    C    -0.08234   0.69561   0.30849   0.00000  Uiso   1.00
C79    C    -0.09120   0.88374   0.32932   0.00000  Uiso   1.00
C80    C     0.78573   0.79059   0.24096   0.00000  Uiso   1.00
C81    C    -0.03364   0.75667   0.61161   0.00000  Uiso   1.00
C82    C    -0.08462   0.84490   0.49823   0.00000  Uiso   1.00
C83    C     0.49516   0.11175   0.08823   0.00000  Uiso   1.00
O84    O     0.60149   0.14883  -0.01385   0.00000  Uiso   1.00
C85    C     0.73838   0.23095   0.92105   0.00000  Uiso   1.00
C86    C     0.40923   0.18300   0.57564   0.00000  Uiso   1.00
C87    C     0.53180   0.07128   0.54080   0.00000  Uiso   1.00
C88    C     0.53803   0.15767   0.67609   0.00000  Uiso   1.00
C89    C     0.23246  -0.11459   0.69445   0.00000  Uiso   1.00
C90    C     0.38819  -0.01096   0.75950   0.00000  Uiso   1.00
C91    C     0.31496   0.80915   0.79531   0.00000  Uiso   1.00
O92    O     0.04152   0.02076   0.94209   0.00000  Uiso   1.00
C93    C     0.14981  -0.10831   0.95996   0.00000  Uiso   1.00
C94    C     0.57180   0.22404   0.86624   0.00000  Uiso   1.00
C95    C     0.18503   0.02145   0.86633   0.00000  Uiso   1.00
O96    O     0.18130   0.06215   0.99778   0.00000  Uiso   1.00
C97    C     0.46613   0.36054  -0.06377   0.00000  Uiso   1.00
O98    O     0.61835   0.32134  -0.01846   0.00000  Uiso   1.00
C99    C     0.38002   0.46617   0.24023   0.00000  Uiso   1.00
C100   C     0.28612   0.37168   0.12933   0.00000  Uiso   1.00
O101   O     0.20072   0.44932   0.22579   0.00000  Uiso   1.00
O102   O     0.59866   0.48288  -0.02119   0.00000  Uiso   1.00
O103   O     0.57969   0.25047   0.56497   0.00000  Uiso   1.00
C104   C     0.64556   0.23397   0.44888   0.00000  Uiso   1.00
C105   C     0.53465   0.37572   0.47851   0.00000  Uiso   1.00
C106   C     0.24012   0.47200   0.45468   0.00000  Uiso   1.00
C107   C     0.32868   0.40015   0.55919   0.00000  Uiso   1.00
O108   O     0.23489   0.52845   0.58442   0.00000  Uiso   1.00
O109   O     0.41039   0.48180   0.82531   0.00000  Uiso   1.00
O110   O     0.48518   0.56762   0.92057   0.00000  Uiso   1.00
O111   O     0.32355   0.57789   0.89203   0.00000  Uiso   1.00
C112   C     0.25017   0.29325   0.25721   0.00000  Uiso   1.00
C113   C     0.45675   0.67992   0.06234   0.00000  Uiso   1.00
O114   O     0.60123   0.65822  -0.00571   0.00000  Uiso   1.00
C115   C     0.62916   0.70382   0.12328   0.00000  Uiso   1.00
O116   O     0.25559   0.75968   0.06475   0.00000  Uiso   1.00
C117   C     0.31209   0.92790   0.09136   0.00000  Uiso   1.00
C118   C     0.43927   1.05824  -0.05002   0.00000  Uiso   1.00
C119   C     0.15497   0.84286   0.14332   0.00000  Uiso   1.00
O120   O     0.57235   0.82094   0.03399   0.00000  Uiso   1.00
O121   O     0.56645   0.98838   0.01723   0.00000  Uiso   1.00
C122   C     0.50253   0.86780   0.91951   0.00000  Uiso   1.00
C123   C     0.69060   0.91382   0.95864   0.00000  Uiso   1.00
O124   O     0.37745   0.56700   0.52600   0.00000  Uiso   1.00
C125   C     0.45644   0.57570   0.41216   0.00000  Uiso   1.00
O126   O     0.32103   0.80295   0.17688   0.00000  Uiso   1.00
C127   C     0.36052   0.71532   0.45805   0.00000  Uiso   1.00
C128   C     0.30753   0.84915   0.30148   0.00000  Uiso   1.00
C129   C     0.46799   0.91768   0.21757   0.00000  Uiso   1.00
C130   C     0.42921   0.73097   0.25578   0.00000  Uiso   1.00
O131   O     0.45044   0.65113   0.82017   0.00000  Uiso   1.00
C132   C     0.54851   0.59546   0.73562   0.00000  Uiso   1.00
C133   C     0.61780   0.74468   0.82743   0.00000  Uiso   1.00
C134   C     0.38325   0.67098   0.64866   0.00000  Uiso   1.00
O135   O     0.50449   0.75728   0.72888   0.00000  Uiso   1.00
O136   O     0.39452   0.84989   0.67706   0.00000  Uiso   1.00
C137   C     0.75582   0.12103   0.09500   0.00000  Uiso   1.00
O138   O     0.84279   0.15142   0.21827   0.00000  Uiso   1.00
C139   C     0.68181   1.04047   0.21771   0.00000  Uiso   1.00
C140   C     0.83687   0.98590   0.16062   0.00000  Uiso   1.00
C141   C     0.70249  -0.04760   0.42906   0.00000  Uiso   1.00
C142   C     1.07981   0.04400   0.70010   0.00000  Uiso   1.00
C143   C     0.80349   0.25775   0.65551   0.00000  Uiso   1.00
C144   C     0.99494   0.27177   0.60181   0.00000  Uiso   1.00
O145   O     0.94108   0.23293   0.30824   0.00000  Uiso   1.00
C146   C     0.84539   0.13270   0.39225   0.00000  Uiso   1.00
C147   C     0.51527  -0.10987   0.40940   0.00000  Uiso   1.00
C148   C     1.04385   0.17817   0.40415   0.00000  Uiso   1.00
C149   C     0.81167  -0.01201   0.73868   0.00000  Uiso   1.00
C150   C     0.62619   0.95725   0.76052   0.00000  Uiso   1.00
O151   O     1.11531   0.23091   0.72302   0.00000  Uiso   1.00
C152   C     0.85943   0.11735   0.57243   0.00000  Uiso   1.00
C153   C     0.96637   0.18389   0.78663   0.00000  Uiso   1.00
C154   C     0.67952  -0.02384   0.63287   0.00000  Uiso   1.00
C155   C     1.10412   0.30341   0.85113   0.00000  Uiso   1.00
C156   C     0.78137   0.36847   0.07601   0.00000  Uiso   1.00
C157   C     0.97030   0.39461   0.04056   0.00000  Uiso   1.00
C158   C     0.87693   0.53092   0.12754   0.00000  Uiso   1.00
C159   C     0.51915   0.37873   0.07913   0.00000  Uiso   1.00
C160   C     0.72751   0.29613   0.26896   0.00000  Uiso   1.00
C161   C     0.65746   0.45483   0.22786   0.00000  Uiso   1.00
C162   C     0.54781   0.33169   0.30302   0.00000  Uiso   1.00
O163   O     0.97962   0.54718   0.90947   0.00000  Uiso   1.00
O164   O     0.85355   0.48887  -0.01211   0.00000  Uiso   1.00
C165   C     0.88800   0.66440  -0.02261   0.00000  Uiso   1.00
O166   O     0.85537   0.27955   0.52933   0.00000  Uiso   1.00
O167   O     0.93622   0.29823   0.41928   0.00000  Uiso   1.00
O168   O     0.95686   0.42040   0.50672   0.00000  Uiso   1.00
O169   O     0.69346   0.37518   0.53603   0.00000  Uiso   1.00
C170   C     0.62709   0.46068   0.63864   0.00000  Uiso   1.00
C171   C     0.87805   0.46114   0.33264   0.00000  Uiso   1.00
O172   O     0.70926   0.42850   0.35957   0.00000  Uiso   1.00
O173   O     0.81730   0.38346   0.44276   0.00000  Uiso   1.00
C174   C     0.89652   0.38421   0.81532   0.00000  Uiso   1.00
O175   O     1.02736   0.35295   0.74527   0.00000  Uiso   1.00
O176   O     1.02860   0.51180   0.79384   0.00000  Uiso   1.00
C177   C     0.68917   0.43559   0.83237   0.00000  Uiso   1.00
O178   O     0.81624   0.56450   0.88200   0.00000  Uiso   1.00
O179   O     0.64981   0.58699   0.88332   0.00000  Uiso   1.00
O180   O     0.92648   0.53823   0.59475   0.00000  Uiso   1.00
O181   O     0.79247   0.45182   0.62627   0.00000  Uiso   1.00
O182   O     0.92933   0.45258   0.69450   0.00000  Uiso   1.00
O183   O     0.71841   0.54654   0.54194   0.00000  Uiso   1.00
O184   O     0.80082   0.54659   0.43556   0.00000  Uiso   1.00
O185   O     0.84087   0.66989   0.52180   0.00000  Uiso   1.00
O186   O     0.51513   0.68640   0.52260   0.00000  Uiso   1.00
O187   O     0.60780   0.83157   0.51466   0.00000  Uiso   1.00
O188   O     0.51537   0.79880   0.61226   0.00000  Uiso   1.00
O189   O     0.78065   0.76239   0.37222   0.00000  Uiso   1.00
C190   C     0.65204   0.62210   0.32720   0.00000  Uiso   1.00
O191   O     0.70134   0.65970   0.45221   0.00000  Uiso   1.00
O192   O     0.62413   0.77053   0.40165   0.00000  Uiso   1.00
O193   O     0.73351   0.58908   0.77678   0.00000  Uiso   1.00
O194   O     0.85755   0.58405   0.69818   0.00000  Uiso   1.00
C195   C     0.85598   0.73145   0.78337   0.00000  Uiso   1.00
O196   O     0.80157   0.78852   0.59793   0.00000  Uiso   1.00
O197   O     0.64344   0.72903   0.60061   0.00000  Uiso   1.00
O198   O     0.74454   0.68080   0.68033   0.00000  Uiso   1.00
O199   O     0.71165   0.83276   0.69351   0.00000  Uiso   1.00
H200   H     0.02861   0.10243   0.19064   0.00000  Uiso   1.00
H201   H    -0.01218   0.04868   0.25975   0.00000  Uiso   1.00
H202   H     0.06572   0.14263   0.26685   0.00000  Uiso   1.00
H203   H    -0.07000   0.33421   0.18607   0.00000  Uiso   1.00
H204   H    -0.04454   0.24771   0.13100   0.00000  Uiso   1.00
H205   H     0.02909   0.30319   0.18676   0.00000  Uiso   1.00
H206   H     0.33008   0.22631   0.00963   0.00000  Uiso   1.00
H207   H     0.24856   0.29038   0.01270   0.00000  Uiso   1.00
H208   H     0.24823   0.21749  -0.05328   0.00000  Uiso   1.00
H209   H     0.10367   0.27349   0.04317   0.00000  Uiso   1.00
H210   H     0.03489   0.16552   0.04698   0.00000  Uiso   1.00
H211   H     0.06902   0.21076  -0.02924   0.00000  Uiso   1.00
H212   H     0.17777   0.20223   1.14275   0.00000  Uiso   1.00
H213   H     0.26501   0.14200   1.13480   0.00000  Uiso   1.00
H214   H     0.16291   0.07738   1.13616   0.00000  Uiso   1.00
H215   H     0.25581   0.13764   0.77025   0.00000  Uiso   1.00
H216   H     0.30149   0.20449   0.70958   0.00000  Uiso   1.00
H217   H     0.27585   0.08466   0.69601   0.00000  Uiso   1.00
H218   H     0.17933   0.23275   0.58719   0.00000  Uiso   1.00
H219   H     0.10734   0.13556   0.56984   0.00000  Uiso   1.00
H220   H     0.22168   0.14038   0.58144   0.00000  Uiso   1.00
H221   H    -0.09201   0.10193   1.00730   0.00000  Uiso   1.00
H222   H    -0.18342   0.04639   0.96597   0.00000  Uiso   1.00
H223   H    -0.10077   0.12176   0.92463   0.00000  Uiso   1.00
H224   H    -0.01254   0.94204   1.05419   0.00000  Uiso   1.00
H225   H    -0.05554   0.84815   1.01483   0.00000  Uiso   1.00
H226   H    -0.12715   0.91893   1.03701   0.00000  Uiso   1.00
H227   H    -0.05447   0.92542   0.84200   0.00000  Uiso   1.00
H228   H    -0.15610   0.88542   0.88006   0.00000  Uiso   1.00
H229   H    -0.06137   0.84694   0.90006   0.00000  Uiso   1.00
H230   H     0.20757   0.40581  -0.05175   0.00000  Uiso   1.00
H231   H     0.16912   0.45329   0.00800   0.00000  Uiso   1.00
H232   H     0.29068   0.45983  -0.00428   0.00000  Uiso   1.00
H233   H    -0.05266   0.59150   0.44020   0.00000  Uiso   1.00
H234   H     0.05561   0.57634   0.44007   0.00000  Uiso   1.00
H235   H     0.02404   0.65544   0.49472   0.00000  Uiso   1.00
H236   H     0.00682   0.55768   0.26314   0.00000  Uiso   1.00
H237   H     0.02826   0.47950   0.20222   0.00000  Uiso   1.00
H238   H     0.08108   0.59242   0.20273   0.00000  Uiso   1.00
H239   H     0.08093   0.43258   0.37746   0.00000  Uiso   1.00
H240   H     0.11992   0.35483   0.33235   0.00000  Uiso   1.00
H241   H     0.02383   0.38905   0.31061   0.00000  Uiso   1.00
H242   H     0.16802   0.62623   0.34191   0.00000  Uiso   1.00
H243   H     0.22695   0.63804   0.26885   0.00000  Uiso   1.00
H244   H     0.26301   0.57875   0.33359   0.00000  Uiso   1.00
H245   H     0.35935   0.26535   0.83795   0.00000  Uiso   1.00
H246   H     0.25303   0.27993   0.80354   0.00000  Uiso   1.00
H247   H     0.29476   0.33435   0.87619   0.00000  Uiso   1.00
H248   H     0.47290   0.33570   0.75787   0.00000  Uiso   1.00
H249   H     0.46242   0.41815   0.70243   0.00000  Uiso   1.00
H250   H     0.39761   0.31840   0.68957   0.00000  Uiso   1.00
H251   H     0.14323   0.70728   0.85441   0.00000  Uiso   1.00
H252   H     0.02894   0.71223   0.87020   0.00000  Uiso   1.00
H253   H     0.06801   0.69503   0.79458   0.00000  Uiso   1.00
H254   H     0.25763   0.40747   0.69449   0.00000  Uiso   1.00
H255   H     0.30754   0.51110   0.71611   0.00000  Uiso   1.00
H256   H     0.21901   0.45345   0.76001   0.00000  Uiso   1.00
H257   H     0.20634   0.61282   0.70133   0.00000  Uiso   1.00
H258   H     0.11276   0.53174   0.70077   0.00000  Uiso   1.00
H259   H     0.10281   0.64631   0.68922   0.00000  Uiso   1.00
H260   H     0.23143   0.71865   0.57130   0.00000  Uiso   1.00
H261   H     0.12041   0.71675   0.56836   0.00000  Uiso   1.00
H262   H     0.17564   0.66810   0.50577   0.00000  Uiso   1.00
H263   H     0.29807   0.56473   0.08451   0.00000  Uiso   1.00
H264   H     0.18816   0.53604   0.11794   0.00000  Uiso   1.00
H265   H     0.25985   0.62596   0.15286   0.00000  Uiso   1.00
H266   H     0.07294   0.70990   0.03398   0.00000  Uiso   1.00
H267   H     0.07740   0.67029   0.11389   0.00000  Uiso   1.00
H268   H     0.05483   0.60235   0.04331   0.00000  Uiso   1.00
H269   H    -0.13028   0.64004   0.29193   0.00000  Uiso   1.00
H270   H    -0.05924   0.68909   0.35656   0.00000  Uiso   1.00
H271   H    -0.02702   0.70312   0.27839   0.00000  Uiso   1.00
H272   H    -0.13035   0.93138   0.34588   0.00000  Uiso   1.00
H273   H    -0.06936   0.91128   0.28343   0.00000  Uiso   1.00
H274   H    -0.03183   0.88108   0.36250   0.00000  Uiso   1.00
H275   H     0.83208   0.80865   0.20582   0.00000  Uiso   1.00
H276   H     0.73441   0.82622   0.24444   0.00000  Uiso   1.00
H277   H     0.75784   0.72506   0.22873   0.00000  Uiso   1.00
H278   H    -0.04289   0.78399   0.66237   0.00000  Uiso   1.00
H279   H     0.01891   0.79866   0.59088   0.00000  Uiso   1.00
H280   H    -0.01882   0.69451   0.61920   0.00000  Uiso   1.00
H281   H    -0.04401   0.81917   0.46545   0.00000  Uiso   1.00
H282   H    -0.05058   0.90375   0.52061   0.00000  Uiso   1.00
H283   H    -0.13805   0.85927   0.46715   0.00000  Uiso   1.00
H284   H     0.44955   0.06594   0.11462   0.00000  Uiso   1.00
H285   H     0.45854   0.16277   0.07027   0.00000  Uiso   1.00
H286   H     0.54675   0.12316   0.12484   0.00000  Uiso   1.00
H287   H     0.77862   0.22362   0.96477   0.00000  Uiso   1.00
H288   H     0.76395   0.28286   0.88926   0.00000  Uiso   1.00
H289   H     0.73529   0.17370   0.89166   0.00000  Uiso   1.00
H290   H     0.39751   0.20178   0.52670   0.00000  Uiso   1.00
H291   H     0.39041   0.22697   0.61360   0.00000  Uiso   1.00
H292   H     0.36541   0.12283   0.58252   0.00000  Uiso   1.00
H293   H     0.60036   0.06676   0.54629   0.00000  Uiso   1.00
H294   H     0.52318   0.07323   0.48601   0.00000  Uiso   1.00
H295   H     0.48994   0.01568   0.55816   0.00000  Uiso   1.00
H296   H     0.48370   0.18029   0.69734   0.00000  Uiso   1.00
H297   H     0.59564   0.20139   0.68783   0.00000  Uiso   1.00
H298   H     0.53856   0.08730   0.68873   0.00000  Uiso   1.00
H299   H     0.20782  -0.17378   0.66998   0.00000  Uiso   1.00
H300   H     0.23535  -0.05934   0.66611   0.00000  Uiso   1.00
H301   H     0.19300  -0.10902   0.73660   0.00000  Uiso   1.00
H302   H     0.44989  -0.01621   0.77711   0.00000  Uiso   1.00
H303   H     0.34955   0.02253   0.79291   0.00000  Uiso   1.00
H304   H     0.39674   0.03623   0.71963   0.00000  Uiso   1.00
H305   H     0.28124   0.74531   0.78132   0.00000  Uiso   1.00
H306   H     0.27334   0.83401   0.83265   0.00000  Uiso   1.00
H307   H     0.37710   0.80004   0.81792   0.00000  Uiso   1.00
H308   H     0.21531  -0.10904   0.96303   0.00000  Uiso   1.00
H309   H     0.12692  -0.14669   0.91652   0.00000  Uiso   1.00
H310   H     0.10829  -0.13323   1.00019   0.00000  Uiso   1.00
H311   H     0.60622   0.18306   0.83826   0.00000  Uiso   1.00
H312   H     0.58514   0.29256   0.85037   0.00000  Uiso   1.00
H313   H     0.50431   0.19797   0.86063   0.00000  Uiso   1.00
H314   H     0.19311   0.08934   0.85551   0.00000  Uiso   1.00
H315   H     0.14446  -0.02188   0.82949   0.00000  Uiso   1.00
H316   H     0.24802   0.00180   0.87393   0.00000  Uiso   1.00
H317   H     0.44873   0.28813  -0.06059   0.00000  Uiso   1.00
H318   H     0.48970   0.37631  -0.11174   0.00000  Uiso   1.00
H319   H     0.41159   0.39688  -0.05000   0.00000  Uiso   1.00
H320   H     0.43028   0.46294   0.20352   0.00000  Uiso   1.00
H321   H     0.40362   0.44646   0.28660   0.00000  Uiso   1.00
H322   H     0.37370   0.53676   0.24608   0.00000  Uiso   1.00
H323   H     0.22254   0.35480   0.09806   0.00000  Uiso   1.00
H324   H     0.32260   0.31578   0.12324   0.00000  Uiso   1.00
H325   H     0.32070   0.42739   0.10387   0.00000  Uiso   1.00
H326   H     0.69678   0.19506   0.46421   0.00000  Uiso   1.00
H327   H     0.66969   0.25935   0.40236   0.00000  Uiso   1.00
H328   H     0.58811   0.18881   0.43439   0.00000  Uiso   1.00
H329   H     0.47464   0.33537   0.46865   0.00000  Uiso   1.00
H330   H     0.55788   0.40855   0.43572   0.00000  Uiso   1.00
H331   H     0.52664   0.42679   0.51723   0.00000  Uiso   1.00
H332   H     0.21553   0.52998   0.43852   0.00000  Uiso   1.00
H333   H     0.18555   0.42776   0.46239   0.00000  Uiso   1.00
H334   H     0.28131   0.44744   0.41929   0.00000  Uiso   1.00
H335   H     0.37882   0.42285   0.59362   0.00000  Uiso   1.00
H336   H     0.34656   0.36159   0.51479   0.00000  Uiso   1.00
H337   H     0.28129   0.35988   0.58116   0.00000  Uiso   1.00
H338   H     0.18505   0.26736   0.24244   0.00000  Uiso   1.00
H339   H     0.25205   0.30857   0.30959   0.00000  Uiso   1.00
H340   H     0.29097   0.25162   0.23937   0.00000  Uiso   1.00
H341   H     0.41088   0.70241   0.03008   0.00000  Uiso   1.00
H342   H     0.44070   0.70476   0.11082   0.00000  Uiso   1.00
H343   H     0.45126   0.61095   0.07067   0.00000  Uiso   1.00
H344   H     0.65827   0.64960   0.11979   0.00000  Uiso   1.00
H345   H     0.58030   0.69373   0.16204   0.00000  Uiso   1.00
H346   H     0.67117   0.76239   0.13608   0.00000  Uiso   1.00
H347   H     0.27059   0.94793   0.05527   0.00000  Uiso   1.00
H348   H     0.37826   0.92103   0.07352   0.00000  Uiso   1.00
H349   H     0.32188   0.97463   0.13057   0.00000  Uiso   1.00
H350   H     0.46513   1.03812  -0.09674   0.00000  Uiso   1.00
H351   H     0.41581   1.11798  -0.05784   0.00000  Uiso   1.00
H352   H     0.38582   1.01334  -0.03594   0.00000  Uiso   1.00
H353   H     0.13303   0.78643   0.17070   0.00000  Uiso   1.00
H354   H     0.11478   0.84158   0.10189   0.00000  Uiso   1.00
H355   H     0.15638   0.89616   0.17301   0.00000  Uiso   1.00
H356   H     0.50184   0.79869   0.91064   0.00000  Uiso   1.00
H357   H     0.52159   0.90137   0.87596   0.00000  Uiso   1.00
H358   H     0.44394   0.88780   0.93556   0.00000  Uiso   1.00
H359   H     0.73121   0.93331   1.00069   0.00000  Uiso   1.00
H360   H     0.69652   0.97043   0.93155   0.00000  Uiso   1.00
H361   H     0.70673   0.86434   0.92218   0.00000  Uiso   1.00
H362   H     0.39446   0.53708   0.39588   0.00000  Uiso   1.00
H363   H     0.50802   0.54148   0.42292   0.00000  Uiso   1.00
H364   H     0.47991   0.61884   0.37491   0.00000  Uiso   1.00
H365   H     0.30264   0.66975   0.44034   0.00000  Uiso   1.00
H366   H     0.39050   0.75478   0.41659   0.00000  Uiso   1.00
H367   H     0.35548   0.75137   0.50367   0.00000  Uiso   1.00
H368   H     0.34082   0.87833   0.35056   0.00000  Uiso   1.00
H369   H     0.26002   0.79059   0.31231   0.00000  Uiso   1.00
H370   H     0.26662   0.89576   0.28750   0.00000  Uiso   1.00
H371   H     0.49233   0.90702   0.17134   0.00000  Uiso   1.00
H372   H     0.52120   0.92323   0.24949   0.00000  Uiso   1.00
H373   H     0.44480   0.98045   0.22067   0.00000  Uiso   1.00
H374   H     0.46016   0.73640   0.30384   0.00000  Uiso   1.00
H375   H     0.47327   0.71752   0.22301   0.00000  Uiso   1.00
H376   H     0.38409   0.67420   0.26168   0.00000  Uiso   1.00
H377   H     0.60556   0.61879   0.71393   0.00000  Uiso   1.00
H378   H     0.49387   0.57254   0.70718   0.00000  Uiso   1.00
H379   H     0.55846   0.54422   0.76879   0.00000  Uiso   1.00
H380   H     0.67488   0.71209   0.81725   0.00000  Uiso   1.00
H381   H     0.60194   0.72956   0.87654   0.00000  Uiso   1.00
H382   H     0.62227   0.81379   0.81942   0.00000  Uiso   1.00
H383   H     0.42435   0.62955   0.63037   0.00000  Uiso   1.00
H384   H     0.33384   0.68211   0.61427   0.00000  Uiso   1.00
H385   H     0.36083   0.64589   0.69534   0.00000  Uiso   1.00
H386   H     0.72316   0.17893   0.10339   0.00000  Uiso   1.00
H387   H     0.71107   0.07116   0.06908   0.00000  Uiso   1.00
H388   H     0.80932   0.14798   0.06694   0.00000  Uiso   1.00
H389   H     0.62638   1.02293   0.18619   0.00000  Uiso   1.00
H390   H     0.67013   1.09589   0.24813   0.00000  Uiso   1.00
H391   H     0.69556   0.98815   0.24822   0.00000  Uiso   1.00
H392   H     0.84052   0.94781   0.20424   0.00000  Uiso   1.00
H393   H     0.89532   1.01272   0.14119   0.00000  Uiso   1.00
H394   H     0.79581   0.93927   0.12794   0.00000  Uiso   1.00
H395   H     0.67469   0.01377   0.43059   0.00000  Uiso   1.00
H396   H     0.73029  -0.06289   0.38356   0.00000  Uiso   1.00
H397   H     0.75565  -0.04674   0.46259   0.00000  Uiso   1.00
H398   H     1.07597   0.03310   0.75039   0.00000  Uiso   1.00
H399   H     1.11155  -0.00306   0.67373   0.00000  Uiso   1.00
H400   H     1.01756   0.03641   0.67777   0.00000  Uiso   1.00
H401   H     0.82162   0.32222   0.67556   0.00000  Uiso   1.00
H402   H     0.81110   0.21186   0.69207   0.00000  Uiso   1.00
H403   H     0.73763   0.23743   0.63747   0.00000  Uiso   1.00
H404   H     1.02080   0.24865   0.55606   0.00000  Uiso   1.00
H405   H     1.02179   0.23876   0.63775   0.00000  Uiso   1.00
H406   H     1.01069   0.33511   0.60727   0.00000  Uiso   1.00
H407   H     0.86041   0.06653   0.38611   0.00000  Uiso   1.00
H408   H     0.79051   0.14344   0.36180   0.00000  Uiso   1.00
H409   H     0.82884   0.13659   0.44482   0.00000  Uiso   1.00
H410   H     0.46521  -0.12619   0.44662   0.00000  Uiso   1.00
H411   H     0.50090  -0.14348   0.36253   0.00000  Uiso   1.00
H412   H     0.52343  -0.03946   0.39956   0.00000  Uiso   1.00
H413   H     1.08901   0.21265   0.36985   0.00000  Uiso   1.00
H414   H     1.03945   0.10549   0.39852   0.00000  Uiso   1.00
H415   H     1.06807   0.21153   0.45104   0.00000  Uiso   1.00
H416   H     0.86797  -0.03591   0.71780   0.00000  Uiso   1.00
H417   H     0.80537  -0.01693   0.79226   0.00000  Uiso   1.00
H418   H     0.80762   0.05658   0.72932   0.00000  Uiso   1.00
H419   H     0.65162   0.95569   0.81129   0.00000  Uiso   1.00
H420   H     0.56874   0.90487   0.74871   0.00000  Uiso   1.00
H421   H     0.60927   1.02339   0.75869   0.00000  Uiso   1.00
H422   H     0.90265   0.09882   0.53205   0.00000  Uiso   1.00
H423   H     0.79441   0.09595   0.55885   0.00000  Uiso   1.00
H424   H     0.86949   0.07960   0.61423   0.00000  Uiso   1.00
H425   H     0.92001   0.21821   0.81031   0.00000  Uiso   1.00
H426   H     0.99400   0.13842   0.81669   0.00000  Uiso   1.00
H427   H     0.93880   0.14939   0.74311   0.00000  Uiso   1.00
H428   H     0.70966  -0.04397   0.58561   0.00000  Uiso   1.00
H429   H     0.69123   0.05003   0.63612   0.00000  Uiso   1.00
H430   H     0.61557  -0.04741   0.61826   0.00000  Uiso   1.00
H431   H     1.05674   0.31732   0.88235   0.00000  Uiso   1.00
H432   H     1.14917   0.36293   0.84866   0.00000  Uiso   1.00
H433   H     1.13550   0.25393   0.87469   0.00000  Uiso   1.00
H434   H     0.72240   0.39903   0.08082   0.00000  Uiso   1.00
H435   H     0.79378   0.34212   0.12578   0.00000  Uiso   1.00
H436   H     0.77167   0.31683   0.03892   0.00000  Uiso   1.00
H437   H     0.94589   0.32583   0.02187   0.00000  Uiso   1.00
H438   H     1.01410   0.40292   0.08480   0.00000  Uiso   1.00
H439   H     1.00398   0.42504   0.00202   0.00000  Uiso   1.00
H440   H     0.87283   0.48750   0.17097   0.00000  Uiso   1.00
H441   H     0.81706   0.56057   0.12991   0.00000  Uiso   1.00
H442   H     0.92903   0.58686   0.12277   0.00000  Uiso   1.00
H443   H     0.54682   0.32323   0.09981   0.00000  Uiso   1.00
H444   H     0.45007   0.36990   0.08204   0.00000  Uiso   1.00
H445   H     0.54840   0.44202   0.09710   0.00000  Uiso   1.00
H446   H     0.70134   0.23954   0.24175   0.00000  Uiso   1.00
H447   H     0.75161   0.27594   0.31438   0.00000  Uiso   1.00
H448   H     0.78567   0.32469   0.24718   0.00000  Uiso   1.00
H449   H     0.71311   0.50027   0.22966   0.00000  Uiso   1.00
H450   H     0.60541   0.49103   0.23359   0.00000  Uiso   1.00
H451   H     0.63956   0.41458   0.18161   0.00000  Uiso   1.00
H452   H     0.53903   0.29680   0.34579   0.00000  Uiso   1.00
H453   H     0.52593   0.29391   0.25744   0.00000  Uiso   1.00
H454   H     0.50465   0.37597   0.30667   0.00000  Uiso   1.00
H455   H     0.90836   0.71108  -0.06047   0.00000  Uiso   1.00
H456   H     0.93438   0.67554   0.01261   0.00000  Uiso   1.00
H457   H     0.82666   0.66510  -0.00343   0.00000  Uiso   1.00
H458   H     0.66207   0.49594   0.68212   0.00000  Uiso   1.00
H459   H     0.60179   0.39213   0.64906   0.00000  Uiso   1.00
H460   H     0.58115   0.50120   0.62390   0.00000  Uiso   1.00
H461   H     0.87456   0.39393   0.31514   0.00000  Uiso   1.00
H462   H     0.94022   0.49174   0.35359   0.00000  Uiso   1.00
H463   H     0.85924   0.49649   0.29107   0.00000  Uiso   1.00
H464   H     0.92350   0.36602   0.86325   0.00000  Uiso   1.00
H465   H     0.85019   0.33105   0.79307   0.00000  Uiso   1.00
H466   H     0.85876   0.43324   0.82390   0.00000  Uiso   1.00
H467   H     0.70000   0.40412   0.87833   0.00000  Uiso   1.00
H468   H     0.72583   0.41273   0.79419   0.00000  Uiso   1.00
H469   H     0.62278   0.43032   0.81542   0.00000  Uiso   1.00
H470   H     0.60786   0.57370   0.35061   0.00000  Uiso   1.00
H471   H     0.70765   0.60099   0.31002   0.00000  Uiso   1.00
H472   H     0.62273   0.65395   0.29056   0.00000  Uiso   1.00
H473   H     0.88784   0.70043   0.82152   0.00000  Uiso   1.00
H474   H     0.81009   0.77063   0.79833   0.00000  Uiso   1.00
H475   H     0.90137   0.77211   0.75445   0.00000  Uiso   1.00
loop_
_geom_bond_atom_site_label_1
_geom_bond_atom_site_label_2
_geom_bond_distance
_geom_bond_site_symmetry_2
_ccdc_geom_bond_type
Si1    C52     1.886   .     S
Si1    C53     1.849   .     S
Si1    O138    1.599   1_455 S
Si1    O145    1.576   1_455 S
Si2    C54     1.832   .     S
Si2    C55     1.894   .     S
Si2    C56     1.834   1_554 S
Si2    O96     1.616   1_554 S
Si3    C57     1.838   .     S
Si3    C58     1.915   .     S
Si3    C142    1.930   1_455 S
Si3    O151    1.629   1_455 S
Si4    C59     1.841   .     S
Si4    O92     1.573   .     S
Si4    C60     1.840   1_545 S
Si4    C61     1.808   1_545 S
Si5    C62     1.798   .     S
Si5    O76     1.607   .     S
Si5    O69     1.629   1_554 S
Si5    O111    1.665   1_554 S
Si6    C63     1.861   .     S
Si6    O71     1.544   .     S
Si6    O168    1.573   1_455 S
Si6    O180    1.638   1_455 S
Si7    C64     1.891   .     S
Si7    C65     1.836   .     S
Si7    C66     1.869   .     S
Si7    O101    1.597   .     S
Si8    C67     1.854   .     S
Si8    C68     1.859   .     S
Si8    C72     1.839   .     S
Si8    O109    1.581   .     S
Si9    O69     1.651   .     S
Si9    C70     1.851   .     S
Si9    O163    1.667   1_455 S
Si9    O176    1.630   1_455 S
Si10   O71     1.595   .     S
Si10   C73     1.805   .     S
Si10   C74     1.891   .     S
Si10   O108    1.557   .     S
Si11   C75     1.842   .     S
Si11   O76     1.595   .     S
Si11   C77     1.894   .     S
Si11   O116    1.627   .     S
Si12   C78     1.916   .     S
Si12   C79     1.751   .     S
Si12   C80     1.838   1_455 S
Si12   O189    1.650   1_455 S
Si13   C81     1.827   .     S
Si13   C82     1.946   .     S
Si13   O185    1.631   1_455 S
Si13   O196    1.539   1_455 S
Si14   C83     1.868   .     S
Si14   O84     1.604   .     S
Si14   C118    1.887   1_545 S
Si14   O121    1.576   1_545 S
Si15   O84     1.595   .     S
Si15   O98     1.648   .     S
Si15   C85     1.880   1_554 S
Si15   C94     1.820   1_554 S
Si16   C86     1.738   .     S
Si16   C87     1.904   .     S
Si16   C88     1.892   .     S
Si16   O103    1.621   .     S
Si17   C89     1.823   .     S
Si17   C90     1.842   .     S
Si17   C91     1.879   1_545 S
Si17   O136    1.547   1_545 S
Si18   O92     1.605   .     S
Si18   C93     1.817   .     S
Si18   C95     1.839   .     S
Si18   O96     1.555   .     S
Si19   C97     1.925   .     S
Si19   O98     1.589   .     S
Si19   O102    1.588   .     S
Si19   C159    1.846   .     S
Si20   C99     1.906   .     S
Si20   C100    1.850   .     S
Si20   O101    1.572   .     S
Si20   C112    1.896   .     S
Si21   O102    1.678   .     S
Si21   O114    1.659   .     S
Si21   O110    1.647   1_554 S
Si21   O179    1.671   1_554 S
Si22   O103    1.559   .     S
Si22   C104    1.849   .     S
Si22   C105    1.909   .     S
Si22   O169    1.591   .     S
Si23   C106    1.874   .     S
Si23   C107    1.833   .     S
Si23   O108    1.580   .     S
Si23   O124    1.558   .     S
Si24   O109    1.603   .     S
Si24   O110    1.578   .     S
Si24   O111    1.651   .     S
Si24   O131    1.636   .     S
Si25   C113    1.793   .     S
Si25   O114    1.617   .     S
Si25   C115    1.925   .     S
Si25   O120    1.640   .     S
Si26   O116    1.560   .     S
Si26   C117    1.746   .     S
Si26   C119    1.889   .     S
Si26   O126    1.599   .     S
Si27   O120    1.607   .     S
Si27   O121    1.608   .     S
Si27   C122    1.871   1_554 S
Si27   C123    1.831   1_554 S
Si28   O124    1.612   .     S
Si28   C125    1.844   .     S
Si28   C127    1.878   .     S
Si28   O186    1.645   .     S
Si29   O126    1.563   .     S
Si29   C128    1.865   .     S
Si29   C129    1.931   .     S
Si29   C130    1.850   .     S
Si30   O131    1.581   .     S
Si30   C132    1.813   .     S
Si30   C133    1.838   .     S
Si30   O135    1.598   .     S
Si31   C134    1.868   .     S
Si31   O135    1.587   .     S
Si31   O136    1.609   .     S
Si31   O188    1.580   .     S
Si32   C137    1.863   .     S
Si32   O138    1.621   .     S
Si32   C139    1.905   1_545 S
Si32   C140    1.870   1_545 S
Si33   C141    1.898   .     S
Si33   C147    1.915   .     S
Si33   O187    1.601   1_545 S
Si33   O192    1.612   1_545 S
Si34   C143    1.893   .     S
Si34   C144    1.862   .     S
Si34   C152    1.859   .     S
Si34   O166    1.593   .     S
Si35   O145    1.556   .     S
Si35   C146    1.838   .     S
Si35   C148    1.896   .     S
Si35   O167    1.587   .     S
Si36   C149    1.845   .     S
Si36   C154    1.807   .     S
Si36   C150    1.861   1_545 S
Si36   O199    1.584   1_545 S
Si37   O151    1.574   .     S
Si37   C153    1.839   .     S
Si37   C155    1.884   .     S
Si37   O175    1.577   .     S
Si38   C156    1.877   .     S
Si38   C157    1.911   .     S
Si38   C158    1.969   .     S
Si38   O164    1.601   .     S
Si39   C160    1.930   .     S
Si39   C161    1.851   .     S
Si39   C162    1.916   .     S
Si39   O172    1.617   .     S
Si40   O164    1.612   .     S
Si40   C165    1.875   .     S
Si40   O163    1.633   1_554 S
Si40   O178    1.601   1_554 S
Si41   O166    1.632   .     S
Si41   O167    1.578   .     S
Si41   O168    1.622   .     S
Si41   O173    1.552   .     S
Si42   O169    1.581   .     S
Si42   C170    1.863   .     S
Si42   O181    1.615   .     S
Si42   O183    1.615   .     S
Si43   C171    1.884   .     S
Si43   O172    1.602   .     S
Si43   O173    1.605   .     S
Si43   O184    1.600   .     S
Si44   C174    1.799   .     S
Si44   O175    1.563   .     S
Si44   O176    1.626   .     S
Si44   O182    1.638   .     S
Si45   C177    1.812   .     S
Si45   O178    1.635   .     S
Si45   O179    1.637   .     S
Si45   O193    1.582   .     S
Si46   O180    1.552   .     S
Si46   O181    1.595   .     S
Si46   O182    1.542   .     S
Si46   O194    1.580   .     S
Si47   O183    1.623   .     S
Si47   O184    1.596   .     S
Si47   O185    1.590   .     S
Si47   O191    1.623   .     S
Si48   O186    1.551   .     S
Si48   O187    1.574   .     S
Si48   O188    1.560   .     S
Si48   O197    1.584   .     S
Si49   O189    1.605   .     S
Si49   C190    1.871   .     S
Si49   O191    1.584   .     S
Si49   O192    1.591   .     S
Si50   O193    1.585   .     S
Si50   O194    1.589   .     S
Si50   C195    1.884   .     S
Si50   O198    1.543   .     S
Si51   O196    1.587   .     S
Si51   O197    1.595   .     S
Si51   O198    1.544   .     S
Si51   O199    1.586   .     S
C52    H200    1.078   .     S
C52    H201    1.102   .     S
C52    H202    1.096   .     S
C53    H203    1.119   .     S
C53    H204    1.100   .     S
C53    H205    1.095   .     S
C54    H206    1.118   .     S
C54    H207    1.045   .     S
C54    H208    1.120   .     S
C55    H209    1.129   .     S
C55    H210    1.128   .     S
C55    H211    1.117   .     S
C56    H212    1.129   .     S
C56    H213    1.098   .     S
C56    H214    1.150   .     S
C56    Si2     1.834   1_556 S
C57    H215    1.040   .     S
C57    H216    1.105   .     S
C57    H217    1.134   .     S
C58    H218    1.083   .     S
C58    H219    1.145   .     S
C58    H220    1.162   .     S
C59    H221    1.119   .     S
C59    H222    1.124   .     S
C59    H223    1.121   .     S
C60    H224    1.098   .     S
C60    H225    1.089   .     S
C60    H226    1.135   .     S
C60    Si4     1.840   1_565 S
C61    H227    1.083   .     S
C61    H228    1.092   .     S
C61    H229    1.119   .     S
C61    Si4     1.808   1_565 S
C62    H230    1.014   .     S
C62    H231    1.145   .     S
C62    H232    1.115   .     S
C63    H233    1.123   .     S
C63    H234    1.134   .     S
C63    H235    1.105   .     S
C64    H236    1.163   .     S
C64    H237    1.073   .     S
C64    H238    1.112   .     S
C65    H239    1.130   .     S
C65    H240    1.043   .     S
C65    H241    1.132   .     S
C66    H242    1.151   .     S
C66    H243    1.125   .     S
C66    H244    1.088   .     S
C67    H245    1.165   .     S
C67    H246    1.098   .     S
C67    H247    1.097   .     S
C68    H248    1.099   .     S
C68    H249    1.072   .     S
C68    H250    1.128   .     S
O69    Si5     1.629   1_556 S
C70    H251    1.101   .     S
C70    H252    1.065   .     S
C70    H253    1.100   .     S
C72    H254    1.069   .     S
C72    H255    1.167   .     S
C72    H256    1.078   .     S
C73    H257    1.120   .     S
C73    H258    1.166   .     S
C73    H259    1.118   .     S
C74    H260    1.090   .     S
C74    H261    1.121   .     S
C74    H262    1.069   .     S
C75    H263    1.128   .     S
C75    H264    1.148   .     S
C75    H265    1.130   .     S
C77    H266    1.077   .     S
C77    H267    1.113   .     S
C77    H268    1.087   .     S
C78    H269    1.116   .     S
C78    H270    1.085   .     S
C78    H271    1.096   .     S
C79    H272    1.106   .     S
C79    H273    1.113   .     S
C79    H274    1.180   .     S
C80    H275    1.074   .     S
C80    H276    1.072   .     S
C80    H277    1.083   .     S
C80    Si12    1.838   1_655 S
C81    H278    1.158   .     S
C81    H279    1.098   .     S
C81    H280    1.063   .     S
C82    H281    1.071   .     S
C82    H282    1.090   .     S
C82    H283    1.127   .     S
C83    H284    1.118   .     S
C83    H285    1.141   .     S
C83    H286    1.111   .     S
C85    H287    1.135   .     S
C85    H288    1.111   .     S
C85    H289    1.072   .     S
C85    Si15    1.880   1_556 S
C86    H290    1.103   .     S
C86    H291    1.117   .     S
C86    H292    1.108   .     S
C87    H293    1.120   .     S
C87    H294    1.160   .     S
C87    H295    1.099   .     S
C88    H296    1.092   .     S
C88    H297    1.085   .     S
C88    H298    1.154   .     S
C89    H299    1.068   .     S
C89    H300    1.070   .     S
C89    H301    1.109   .     S
C90    H302    1.070   .     S
C90    H303    1.119   .     S
C90    H304    1.138   .     S
C91    H305    1.096   .     S
C91    H306    1.140   .     S
C91    H307    1.131   .     S
C91    Si17    1.879   1_565 S
C93    H308    1.056   .     S
C93    H309    1.103   .     S
C93    H310    1.131   .     S
C94    H311    1.081   .     S
C94    H312    1.134   .     S
C94    H313    1.102   .     S
C94    Si15    1.820   1_556 S
C95    H314    1.093   .     S
C95    H315    1.140   .     S
C95    H316    1.116   .     S
O96    Si2     1.616   1_556 S
C97    H317    1.140   .     S
C97    H318    1.108   .     S
C97    H319    1.157   .     S
C99    H320    1.134   .     S
C99    H321    1.113   .     S
C99    H322    1.139   .     S
C100   H323    1.195   .     S
C100   H324    1.139   .     S
C100   H325    1.124   .     S
C104   H326    1.151   .     S
C104   H327    1.124   .     S
C104   H328    1.107   .     S
C105   H329    1.083   .     S
C105   H330    1.097   .     S
C105   H331    1.149   .     S
C106   H332    1.114   .     S
C106   H333    1.053   .     S
C106   H334    1.105   .     S
C107   H335    1.084   .     S
C107   H336    1.162   .     S
C107   H337    1.041   .     S
O110   Si21    1.647   1_556 S
O111   Si5     1.665   1_556 S
C112   H338    1.099   .     S
C112   H339    1.119   .     S
C112   H340    1.063   .     S
C113   H341    1.101   .     S
C113   H342    1.129   .     S
C113   H343    1.100   .     S
C115   H344    1.040   .     S
C115   H345    1.141   .     S
C115   H346    1.080   .     S
C117   H347    1.089   .     S
C117   H348    1.155   .     S
C117   H349    1.080   .     S
C118   H350    1.129   .     S
C118   H351    1.087   .     S
C118   H352    1.079   .     S
C118   Si14    1.887   1_565 S
C119   H353    1.094   .     S
C119   H354    1.073   .     S
C119   H355    1.028   .     S
O121   Si14    1.576   1_565 S
C122   H356    1.100   .     S
C122   H357    1.100   .     S
C122   H358    1.095   .     S
C122   Si27    1.871   1_556 S
C123   H359    1.096   .     S
C123   H360    1.071   .     S
C123   H361    1.138   .     S
C123   Si27    1.831   1_556 S
C125   H362    1.126   .     S
C125   H363    1.084   .     S
C125   H364    1.091   .     S
C127   H365    1.133   .     S
C127   H366    1.159   .     S
C127   H367    1.110   .     S
C128   H368    1.198   .     S
C128   H369    1.137   .     S
C128   H370    1.105   .     S
C129   H371    1.073   .     S
C129   H372    1.069   .     S
C129   H373    1.113   .     S
C130   H374    1.113   .     S
C130   H375    1.038   .     S
C130   H376    1.075   .     S
C132   H377    1.053   .     S
C132   H378    1.062   .     S
C132   H379    1.116   .     S
C133   H380    1.141   .     S
C133   H381    1.095   .     S
C133   H382    1.103   .     S
C134   H383    1.068   .     S
C134   H384    1.104   .     S
C134   H385    1.117   .     S
O136   Si17    1.547   1_565 S
C137   H386    1.134   .     S
C137   H387    1.102   .     S
C137   H388    1.092   .     S
O138   Si1     1.599   1_655 S
C139   H389    1.096   .     S
C139   H390    1.108   .     S
C139   H391    1.111   .     S
C139   Si32    1.905   1_565 S
C140   H392    1.121   .     S
C140   H393    1.065   .     S
C140   H394    1.117   .     S
C140   Si32    1.870   1_565 S
C141   H395    1.129   .     S
C141   H396    1.099   .     S
C141   H397    1.097   .     S
C142   H398    1.079   .     S
C142   H399    1.105   .     S
C142   H400    1.086   .     S
C142   Si3     1.930   1_655 S
C143   H401    1.083   .     S
C143   H402    1.094   .     S
C143   H403    1.114   .     S
C144   H404    1.127   .     S
C144   H405    1.057   .     S
C144   H406    0.996   .     S
O145   Si1     1.576   1_655 S
C146   H407    1.113   .     S
C146   H408    1.119   .     S
C146   H409    1.144   .     S
C147   H410    1.141   .     S
C147   H411    1.107   .     S
C147   H412    1.127   .     S
C148   H413    1.127   .     S
C148   H414    1.142   .     S
C148   H415    1.135   .     S
C149   H416    1.125   .     S
C149   H417    1.138   .     S
C149   H418    1.120   .     S
C150   H419    1.139   .     S
C150   H420    1.158   .     S
C150   H421    1.122   .     S
C150   Si36    1.861   1_565 S
O151   Si3     1.629   1_655 S
C152   H422    1.166   .     S
C152   H423    1.078   .     S
C152   H424    1.103   .     S
C153   H425    1.104   .     S
C153   H426    1.112   .     S
C153   H427    1.099   .     S
C154   H428    1.170   .     S
C154   H429    1.153   .     S
C154   H430    1.074   .     S
C155   H431    1.059   .     S
C155   H432    1.098   .     S
C155   H433    1.119   .     S
C156   H434    1.134   .     S
C156   H435    1.166   .     S
C156   H436    1.100   .     S
C157   H437    1.150   .     S
C157   H438    1.148   .     S
C157   H439    1.070   .     S
C158   H440    1.159   .     S
C158   H441    1.136   .     S
C158   H442    1.128   .     S
C159   H443    1.139   .     S
C159   H444    1.102   .     S
C159   H445    1.089   .     S
C160   H446    1.069   .     S
C160   H447    1.101   .     S
C160   H448    1.090   .     S
C161   H449    1.056   .     S
C161   H450    1.092   .     S
C161   H451    1.150   .     S
C162   H452    1.072   .     S
C162   H453    1.132   .     S
C162   H454    1.062   .     S
O163   Si9     1.667   1_655 S
O163   Si40    1.633   1_556 S
C165   H455    1.123   .     S
C165   H456    1.033   .     S
C165   H457    1.075   .     S
O168   Si6     1.573   1_655 S
C170   H458    1.145   .     S
C170   H459    1.127   .     S
C170   H460    1.098   .     S
C171   H461    1.105   .     S
C171   H462    1.117   .     S
C171   H463    1.116   .     S
C174   H464    1.154   .     S
C174   H465    1.116   .     S
C174   H466    1.069   .     S
O176   Si9     1.630   1_655 S
C177   H467    1.126   .     S
C177   H468    1.089   .     S
C177   H469    1.110   .     S
O178   Si40    1.601   1_556 S
O179   Si21    1.671   1_556 S
O180   Si6     1.638   1_655 S
O185   Si13    1.631   1_655 S
O187   Si33    1.601   1_565 S
O189   Si12    1.650   1_655 S
C190   H470    1.097   .     S
C190   H471    1.067   .     S
C190   H472    1.076   .     S
O192   Si33    1.612   1_565 S
C195   H473    1.113   .     S
C195   H474    1.079   .     S
C195   H475    1.102   .     S
O196   Si13    1.539   1_655 S
O199   Si36    1.584   1_565 S
