data_333-7-11-18-15-30-7
_audit_creation_date              2025-03-07
_audit_creation_method            'Materials Studio'
_symmetry_space_group_name_H-M    'P1'
_symmetry_Int_Tables_number       1
_symmetry_cell_setting            triclinic
loop_
_symmetry_equiv_pos_as_xyz
  x,y,z
_cell_length_a                    20.7098
_cell_length_b                    18.1532
_cell_length_c                    17.8880
_cell_angle_alpha                 90.8601
_cell_angle_beta                  91.5812
_cell_angle_gamma                 130.4926
loop_
_atom_site_label
_atom_site_type_symbol
_atom_site_fract_x
_atom_site_fract_y
_atom_site_fract_z
_atom_site_U_iso_or_equiv
_atom_site_adp_type
_atom_site_occupancy
Si1    Si    0.22332   0.01745   0.07741   0.00000  Uiso   1.00
Si2    Si   -0.13582   0.13509   0.29660   0.00000  Uiso   1.00
Si3    Si    0.27672   0.16072  -0.04027   0.00000  Uiso   1.00
Si4    Si    0.07918  -0.14313   0.39767   0.00000  Uiso   1.00
Si5    Si    0.21323   0.34031   0.70214   0.00000  Uiso   1.00
Si6    Si    0.30222   0.32782   0.04266   0.00000  Uiso   1.00
Si7    Si   -0.04867   0.47379   0.32730   0.00000  Uiso   1.00
Si8    Si    0.33471   0.51264   0.00858   0.00000  Uiso   1.00
Si9    Si    0.18249   0.24681   0.38839   0.00000  Uiso   1.00
Si10   Si   -0.07723   0.43750   0.59242   0.00000  Uiso   1.00
Si11   Si    0.10581   0.38562   0.76502   0.00000  Uiso   1.00
Si12   Si   -0.00940   0.33734   0.62919   0.00000  Uiso   1.00
Si13   Si    0.12058   0.80926   0.01134   0.00000  Uiso   1.00
Si14   Si    0.08258   0.64260   0.56385   0.00000  Uiso   1.00
Si15   Si    0.06569   0.79611   0.56408   0.00000  Uiso   1.00
Si16   Si    0.00459   0.70960   0.86631   0.00000  Uiso   1.00
Si17   Si    0.52920   0.03050   0.09818   0.00000  Uiso   1.00
Si18   Si    0.39807   0.16313   0.16363   0.00000  Uiso   1.00
Si19   Si    0.53810   0.17413  -0.00715   0.00000  Uiso   1.00
Si20   Si    0.46488   0.01598   0.39786   0.00000  Uiso   1.00
Si21   Si    0.50953   0.16880   0.28646   0.00000  Uiso   1.00
Si22   Si    0.39389   0.13138   0.90011   0.00000  Uiso   1.00
Si23   Si    0.47917   0.10761   0.65354   0.00000  Uiso   1.00
Si24   Si    0.55832   0.32611   0.08222   0.00000  Uiso   1.00
Si25   Si    0.64101   0.52449   0.02194   0.00000  Uiso   1.00
Si26   Si    0.50694   0.29057   0.40731   0.00000  Uiso   1.00
Si27   Si    0.29178   0.47010   0.38037   0.00000  Uiso   1.00
Si28   Si    0.52222   0.32637   0.83505   0.00000  Uiso   1.00
Si29   Si    0.36262   0.85610   0.16282   0.00000  Uiso   1.00
Si30   Si    0.57378   0.91127   0.04425   0.00000  Uiso   1.00
Si31   Si    0.42169   0.83588   0.31768   0.00000  Uiso   1.00
Si32   Si    0.43975   0.73876   0.67783   0.00000  Uiso   1.00
Si33   Si    0.57928   0.74530   0.61122   0.00000  Uiso   1.00
Si34   Si    0.64257   0.15359   0.23298   0.00000  Uiso   1.00
Si35   Si    0.96354   0.36267   0.09628   0.00000  Uiso   1.00
Si36   Si    0.59203   0.12542   0.53536   0.00000  Uiso   1.00
Si37   Si    0.73727   0.14700   0.36612   0.00000  Uiso   1.00
Si38   Si    0.65893   0.17650   0.89900   0.00000  Uiso   1.00
Si39   Si    0.83087   0.33374   0.19523   0.00000  Uiso   1.00
Si40   Si    0.76679   0.29887   0.48088   0.00000  Uiso   1.00
Si41   Si    0.82484   0.47914   0.40939   0.00000  Uiso   1.00
Si42   Si    0.78970   0.30408   0.78396   0.00000  Uiso   1.00
Si43   Si    0.70553   0.48256   0.89301   0.00000  Uiso   1.00
Si44   Si    0.82592   0.46626   0.69611   0.00000  Uiso   1.00
Si45   Si    0.91829   0.90529  -0.09988   0.00000  Uiso   1.00
Si46   Si    0.83845   0.99301  -0.15252   0.00000  Uiso   1.00
Si47   Si    0.77200   0.77914   0.34480   0.00000  Uiso   1.00
Si48   Si    0.60703   0.64209   0.71693   0.00000  Uiso   1.00
Si49   Si    0.86950   0.87520   0.20478   0.00000  Uiso   1.00
Si50   Si    0.84529   0.62843   0.78918   0.00000  Uiso   1.00
Si51   Si    0.77359   0.70161   0.68729   0.00000  Uiso   1.00
C52    C     0.14767   0.97594   0.15337   0.00000  Uiso   1.00
C53    C    -0.14392   0.04811   0.36019   0.00000  Uiso   1.00
C54    C     0.81025   0.07189   0.19929   0.00000  Uiso   1.00
O55    O     0.22787   0.08881   0.02636   0.00000  Uiso   1.00
C56    C     0.21411   0.12867   0.87321   0.00000  Uiso   1.00
C57    C     0.05245  -0.22341   0.32201   0.00000  Uiso   1.00
C58    C     0.19820  -0.03000   0.40007   0.00000  Uiso   1.00
C59    C     0.01009   0.89270   0.38988   0.00000  Uiso   1.00
C60    C     0.29285   0.36840   0.77535   0.00000  Uiso   1.00
C61    C     0.26130   0.38438   0.60814   0.00000  Uiso   1.00
C62    C     0.12587   0.20709   0.68609   0.00000  Uiso   1.00
C63    C    -0.01819   0.23911   0.28458   0.00000  Uiso   1.00
C64    C     0.19441   0.24578   0.07710   0.00000  Uiso   1.00
O65    O     0.31142   0.26546  -0.01376   0.00000  Uiso   1.00
C66    C     0.38195   0.38324   0.12029   0.00000  Uiso   1.00
C67    C     0.01344   0.44835   0.38463   0.00000  Uiso   1.00
C68    C     0.01666   0.57443   0.26674   0.00000  Uiso   1.00
O69    O     0.31834   0.41355  -0.00285   0.00000  Uiso   1.00
C70    C     0.42919   0.60078   0.07798   0.00000  Uiso   1.00
C71    C     0.23679   0.48199   1.05078   0.00000  Uiso   1.00
C72    C     0.35347   0.56368   0.91349   0.00000  Uiso   1.00
C73    C     0.07036   0.15741   0.41784   0.00000  Uiso   1.00
C74    C     0.24741   0.22602   0.43175   0.00000  Uiso   1.00
C75    C     0.18546   0.22887   0.28820   0.00000  Uiso   1.00
C76    C     0.08244   0.32299   0.85410   0.00000  Uiso   1.00
O77    O     0.16994   0.38586   0.71691   0.00000  Uiso   1.00
C78    C     0.15715   0.51176   0.80286   0.00000  Uiso   1.00
O79    O    -0.03396   0.40434   0.63689   0.00000  Uiso   1.00
O80    O     0.02625   0.33876   0.70973   0.00000  Uiso   1.00
C81    C     0.08293   0.39788   0.56605   0.00000  Uiso   1.00
C82    C     0.06366   0.75117   0.10125   0.00000  Uiso   1.00
O83    O     0.19276   0.92677   0.02614   0.00000  Uiso   1.00
C84    C     0.18732   0.77775   0.98593   0.00000  Uiso   1.00
O85    O    -0.00450   0.53036   0.54891   0.00000  Uiso   1.00
C86    C     0.15432   0.70148   0.48423   0.00000  Uiso   1.00
C87    C     0.14193   0.65014   0.64760   0.00000  Uiso   1.00
C88    C     0.17722   0.90467   0.60072   0.00000  Uiso   1.00
O89    O     0.05383   0.70339   0.58041   0.00000  Uiso   1.00
O90    O     0.04822   0.79713   0.47525   0.00000  Uiso   1.00
O91    O     0.05221   0.77913   0.94379   0.00000  Uiso   1.00
C92    C    -0.00940   0.60113   0.88406   0.00000  Uiso   1.00
O93    O     0.31647   0.07057   0.11571   0.00000  Uiso   1.00
C94    C     0.34540   0.19479   0.22461   0.00000  Uiso   1.00
O95    O     0.54143   0.11590   0.05635   0.00000  Uiso   1.00
C96    C     0.36785   0.94732   0.44443   0.00000  Uiso   1.00
O97    O     0.44655   0.13932   0.21636   0.00000  Uiso   1.00
O98    O     0.46373   0.07659   0.33836   0.00000  Uiso   1.00
C99    C     0.30328   0.01132   0.84821   0.00000  Uiso   1.00
O100   O     0.44557   0.11892   0.95795   0.00000  Uiso   1.00
O101   O     0.35724   0.17045   0.94351   0.00000  Uiso   1.00
C102   C     0.40557   0.13329   0.64033   0.00000  Uiso   1.00
C103   C     0.40448  -0.02771   0.66190   0.00000  Uiso   1.00
O104   O     0.46575   0.25033   0.10926   0.00000  Uiso   1.00
O105   O     0.57279   0.27671   0.02146   0.00000  Uiso   1.00
C106   C     0.63502   0.36726   0.16577   0.00000  Uiso   1.00
O107   O     0.57113   0.41340   0.04781   0.00000  Uiso   1.00
C108   C     0.72947   0.58793   0.09562   0.00000  Uiso   1.00
C109   C     0.60353   0.59441   1.01846   0.00000  Uiso   1.00
C110   C     0.40571   0.19955   0.44816   0.00000  Uiso   1.00
O111   O     0.52242   0.25313   0.33388   0.00000  Uiso   1.00
C112   C     0.50394   0.38821   0.38640   0.00000  Uiso   1.00
C113   C     0.58477   0.33782   0.48742   0.00000  Uiso   1.00
O114   O     0.22390   0.35756   0.40300   0.00000  Uiso   1.00
C115   C     0.39727   0.50519   0.37992   0.00000  Uiso   1.00
C116   C     0.26945   0.49048   0.28501   0.00000  Uiso   1.00
C117   C     0.29526   0.55146   0.45004   0.00000  Uiso   1.00
C118   C    -0.09819   0.20784   0.58605   0.00000  Uiso   1.00
O119   O     0.45916   0.21399   0.84437   0.00000  Uiso   1.00
C120   C     0.54338   0.15987   0.74283   0.00000  Uiso   1.00
C121   C     0.52394   0.34829   0.73492   0.00000  Uiso   1.00
C122   C     0.48000   0.38151   0.87852   0.00000  Uiso   1.00
C123   C     0.31224   0.74757   0.10054   0.00000  Uiso   1.00
O124   O     0.42978   0.95279   0.11786   0.00000  Uiso   1.00
C125   C     0.27971   0.86364   0.18927   0.00000  Uiso   1.00
C126   C    -0.00836   0.79785   0.62351   0.00000  Uiso   1.00
C127   C     0.57138   0.87754   0.14296   0.00000  Uiso   1.00
O128   O     0.54784   0.97696   0.04360   0.00000  Uiso   1.00
C129   C     0.50847   0.80212   0.97703   0.00000  Uiso   1.00
C130   C     0.68718   0.98260   1.02170   0.00000  Uiso   1.00
O131   O     0.41656   0.85545   0.22993   0.00000  Uiso   1.00
C132   C     0.31090   0.74303   0.34943   0.00000  Uiso   1.00
O133   O     0.46950   0.93593   0.36625   0.00000  Uiso   1.00
C134   C     0.48719   0.79790   0.32690   0.00000  Uiso   1.00
C135   C     0.38657   0.75081   0.59991   0.00000  Uiso   1.00
C136   C     0.36073   0.63231   0.73973   0.00000  Uiso   1.00
C137   C     0.50449   0.84891   0.74045   0.00000  Uiso   1.00
C138   C     0.55153   0.67309   0.52677   0.00000  Uiso   1.00
O139   O     0.49734   0.71616   0.64844   0.00000  Uiso   1.00
C140   C     0.65048   0.87468   0.58863   0.00000  Uiso   1.00
O141   O     0.58308   0.06513   0.17579   0.00000  Uiso   1.00
O142   O     0.59814   0.19748   0.25987   0.00000  Uiso   1.00
C143   C     1.06777   0.42299   1.14653   0.00000  Uiso   1.00
C144   C     0.94287   0.26082   0.03903   0.00000  Uiso   1.00
O145   O     0.54897   0.09135   0.45212   0.00000  Uiso   1.00
C146   C     0.59474   0.03218   0.57512   0.00000  Uiso   1.00
O147   O     0.53843   0.14065   0.58572   0.00000  Uiso   1.00
O148   O     0.81707   0.17526   0.32415   0.00000  Uiso   1.00
O149   O     0.66921   0.12316   0.30410   0.00000  Uiso   1.00
C150   C     0.68437   0.03490   0.41663   0.00000  Uiso   1.00
C151   C     0.59485   0.04843   0.86460   0.00000  Uiso   1.00
C152   C     0.73526   0.20466   0.97688   0.00000  Uiso   1.00
C153   C     0.97755   0.44898   1.03080   0.00000  Uiso   1.00
O154   O     0.59787   0.19343   0.92814   0.00000  Uiso   1.00
O155   O     0.73094   0.23662   0.19285   0.00000  Uiso   1.00
O156   O     0.88743   0.31755   0.15101   0.00000  Uiso   1.00
C157   C     0.83033   0.41895   0.13952   0.00000  Uiso   1.00
O158   O     0.87392   0.37908   0.28122   0.00000  Uiso   1.00
O159   O     0.69056   0.22972   0.52994   0.00000  Uiso   1.00
O160   O     0.77105   0.24284   0.41399   0.00000  Uiso   1.00
O161   O     0.85280   0.35265   0.53461   0.00000  Uiso   1.00
O162   O     0.91141   0.50766   0.38050   0.00000  Uiso   1.00
C163   C     0.75761   0.45673   0.32897   0.00000  Uiso   1.00
O164   O     0.76719   0.37922   0.44988   0.00000  Uiso   1.00
O165   O     0.71352   0.24996   0.83709   0.00000  Uiso   1.00
C166   C     0.75325   0.22869   0.69886   0.00000  Uiso   1.00
C167   C     0.88240   0.32370   0.83139   0.00000  Uiso   1.00
O168   O     0.61779   0.38184   0.86166   0.00000  Uiso   1.00
C169   C     0.76878   0.45609   0.94149   0.00000  Uiso   1.00
O170   O     0.68005   0.52915   0.94583   0.00000  Uiso   1.00
O171   O     0.89227   0.47837   0.64495   0.00000  Uiso   1.00
C172   C     0.72332   0.40925   0.64816   0.00000  Uiso   1.00
O173   O     0.80725   0.40056   0.76132   0.00000  Uiso   1.00
C174   C     0.85030   0.78270  -0.06043   0.00000  Uiso   1.00
C175   C     0.99145   0.91829  -0.16583   0.00000  Uiso   1.00
C176   C     0.98207   0.98747  -0.01766   0.00000  Uiso   1.00
C177   C     1.07363   0.76853   0.78530   0.00000  Uiso   1.00
C178   C     0.90668   1.07900   0.77445   0.00000  Uiso   1.00
O179   O     0.86086   0.92511  -0.14021   0.00000  Uiso   1.00
C180   C     0.86059   1.06506  -0.06531   0.00000  Uiso   1.00
C181   C     0.72975   0.92645   0.81070   0.00000  Uiso   1.00
C182   C     0.81049   0.83285   0.44472   0.00000  Uiso   1.00
C183   C     0.85341   0.58297   0.47065   0.00000  Uiso   1.00
C184   C     0.67271   0.76016   0.31769   0.00000  Uiso   1.00
C185   C     0.74282   0.65941   0.34147   0.00000  Uiso   1.00
C186   C     0.57993   0.65283   0.81097   0.00000  Uiso   1.00
C187   C     0.51407   0.52041   0.67851   0.00000  Uiso   1.00
O188   O     0.62011   0.72299   0.66965   0.00000  Uiso   1.00
C189   C     0.96732   1.00780   0.20216   0.00000  Uiso   1.00
C190   C     0.90516   0.80626   0.18182   0.00000  Uiso   1.00
O191   O     0.84622   0.85707   0.28949   0.00000  Uiso   1.00
C192   C     0.77945   0.84322   0.13740   0.00000  Uiso   1.00
O193   O     0.75838   0.55532   0.82727   0.00000  Uiso   1.00
O194   O     0.86111   0.56952   0.73205   0.00000  Uiso   1.00
O195   O     0.92078   0.68809   0.85014   0.00000  Uiso   1.00
C196   C     0.75072   0.64323   0.59374   0.00000  Uiso   1.00
O197   O     0.68569   0.64940   0.72056   0.00000  Uiso   1.00
O198   O     0.83635   0.69503   0.74054   0.00000  Uiso   1.00
C199   C     0.83015   0.82974   0.67157   0.00000  Uiso   1.00
H200   H     0.15420   0.93748   0.19431   0.00000  Uiso   1.00
H201   H     0.08623   0.92566   0.13001   0.00000  Uiso   1.00
H202   H     0.15296   1.03687   0.17707   0.00000  Uiso   1.00
H203   H    -0.12314   0.00899   0.33832   0.00000  Uiso   1.00
H204   H    -0.21142  -0.00588   0.36789   0.00000  Uiso   1.00
H205   H    -0.12222   0.07134   0.41820   0.00000  Uiso   1.00
H206   H     0.81006   0.11888   0.16391   0.00000  Uiso   1.00
H207   H     0.74654   0.00059   0.20745   0.00000  Uiso   1.00
H208   H     0.85008   0.05536   0.17856   0.00000  Uiso   1.00
H209   H     0.25472   0.18321   0.83094   0.00000  Uiso   1.00
H210   H     0.16267   0.13321   0.87937   0.00000  Uiso   1.00
H211   H     0.18411   0.05806   0.84684   0.00000  Uiso   1.00
H212   H     0.03941  -0.20689   0.26720   0.00000  Uiso   1.00
H213   H    -0.00366  -0.30086   0.33327   0.00000  Uiso   1.00
H214   H     0.10839  -0.22204   0.32188   0.00000  Uiso   1.00
H215   H     0.21528   0.01710   0.45147   0.00000  Uiso   1.00
H216   H     0.21353   0.00430   0.34184   0.00000  Uiso   1.00
H217   H     0.23687  -0.05092   0.40850   0.00000  Uiso   1.00
H218   H     0.01055   0.92395   0.44217   0.00000  Uiso   1.00
H219   H    -0.06000   0.82584   0.37982   0.00000  Uiso   1.00
H220   H     0.03800   0.94548   0.34414   0.00000  Uiso   1.00
H221   H     0.35329   0.43995   0.77286   0.00000  Uiso   1.00
H222   H     0.30752   0.31997   0.76066   0.00000  Uiso   1.00
H223   H     0.27111   0.35452   0.83476   0.00000  Uiso   1.00
H224   H     0.20967   0.37488   0.57375   0.00000  Uiso   1.00
H225   H     0.26953   0.33481   0.58368   0.00000  Uiso   1.00
H226   H     0.32084   0.46465   0.60896   0.00000  Uiso   1.00
H227   H     0.14280   0.17566   0.64867   0.00000  Uiso   1.00
H228   H     0.06574   0.18805   0.67256   0.00000  Uiso   1.00
H229   H     0.11099   0.17222   0.73926   0.00000  Uiso   1.00
H230   H     0.01527   0.27513   0.34166   0.00000  Uiso   1.00
H231   H    -0.00907   0.29570   0.25085   0.00000  Uiso   1.00
H232   H     0.00953   0.21196   0.26152   0.00000  Uiso   1.00
H233   H     0.14072   0.22001   0.03382   0.00000  Uiso   1.00
H234   H     0.19271   0.28281   0.12414   0.00000  Uiso   1.00
H235   H     0.18620   0.18045   0.09007   0.00000  Uiso   1.00
H236   H     0.36697   0.40513   0.17188   0.00000  Uiso   1.00
H237   H     0.44358   0.44549   0.09731   0.00000  Uiso   1.00
H238   H     0.38764   0.33088   0.13981   0.00000  Uiso   1.00
H239   H     0.06061   0.50846   0.42702   0.00000  Uiso   1.00
H240   H     0.05434   0.44967   0.34791   0.00000  Uiso   1.00
H241   H    -0.03016   0.37792   0.41259   0.00000  Uiso   1.00
H242   H     0.03585   0.55207   0.21619   0.00000  Uiso   1.00
H243   H     0.07260   0.63357   0.30490   0.00000  Uiso   1.00
H244   H    -0.01797   0.59872   0.24297   0.00000  Uiso   1.00
H245   H     0.48239   0.61617   0.05230   0.00000  Uiso   1.00
H246   H     0.41175   0.55884   0.12775   0.00000  Uiso   1.00
H247   H     0.42854   0.65873   0.09611   0.00000  Uiso   1.00
H248   H     0.23072   0.45327   1.10915   0.00000  Uiso   1.00
H249   H     0.18304   0.43620   1.00853   0.00000  Uiso   1.00
H250   H     0.25510   0.55338   1.06312   0.00000  Uiso   1.00
H251   H     0.30637   0.49917   0.87101   0.00000  Uiso   1.00
H252   H     0.42387   0.60147   0.89950   0.00000  Uiso   1.00
H253   H     0.33970   0.61440   0.91511   0.00000  Uiso   1.00
H254   H     0.02391   0.13594   0.37200   0.00000  Uiso   1.00
H255   H     0.06620   0.19552   0.46866   0.00000  Uiso   1.00
H256   H     0.05779   0.09384   0.43807   0.00000  Uiso   1.00
H257   H     0.23207   0.20213   0.48842   0.00000  Uiso   1.00
H258   H     0.31344   0.30009   0.43752   0.00000  Uiso   1.00
H259   H     0.24097   0.16954   0.39649   0.00000  Uiso   1.00
H260   H     0.24991   0.28053   0.27065   0.00000  Uiso   1.00
H261   H     0.14092   0.23507   0.25994   0.00000  Uiso   1.00
H262   H     0.15924   0.15490   0.28265   0.00000  Uiso   1.00
H263   H     0.09238   0.27239   0.84866   0.00000  Uiso   1.00
H264   H     0.01767   0.28972   0.87168   0.00000  Uiso   1.00
H265   H     0.12815   0.38208   0.89941   0.00000  Uiso   1.00
H266   H     0.10662   0.51261   0.82703   0.00000  Uiso   1.00
H267   H     0.18392   0.56201   0.75470   0.00000  Uiso   1.00
H268   H     0.21746   0.55428   0.84179   0.00000  Uiso   1.00
H269   H     0.14175   0.46267   0.59542   0.00000  Uiso   1.00
H270   H     0.06142   0.41317   0.51646   0.00000  Uiso   1.00
H271   H     0.08887   0.34526   0.54741   0.00000  Uiso   1.00
H272   H     0.03363   0.67481   0.09373   0.00000  Uiso   1.00
H273   H     0.01078   0.75214   0.09975   0.00000  Uiso   1.00
H274   H     0.10271   0.78683   0.15592   0.00000  Uiso   1.00
H275   H     0.20219   0.78696   0.92527   0.00000  Uiso   1.00
H276   H     0.15824   0.70020   0.99880   0.00000  Uiso   1.00
H277   H     0.24993   0.82538   1.01839   0.00000  Uiso   1.00
H278   H     0.19684   0.68616   0.48638   0.00000  Uiso   1.00
H279   H     0.19730   0.78518   0.49198   0.00000  Uiso   1.00
H280   H     0.11220   0.67133   0.43334   0.00000  Uiso   1.00
H281   H     0.16592   0.61692   0.62589   0.00000  Uiso   1.00
H282   H     0.09787   0.61055   0.69655   0.00000  Uiso   1.00
H283   H     0.19363   0.72701   0.65414   0.00000  Uiso   1.00
H284   H     0.19074   0.88818   0.65439   0.00000  Uiso   1.00
H285   H     0.18481   0.96586   0.62036   0.00000  Uiso   1.00
H286   H     0.22604   0.93524   0.55850   0.00000  Uiso   1.00
H287   H     0.04786   0.61101   0.86695   0.00000  Uiso   1.00
H288   H    -0.06774   0.53882   0.85045   0.00000  Uiso   1.00
H289   H    -0.01422   0.58959   0.94297   0.00000  Uiso   1.00
H290   H     0.32013   0.15417   0.27533   0.00000  Uiso   1.00
H291   H     0.29866   0.19558   0.19086   0.00000  Uiso   1.00
H292   H     0.39396   0.27171   0.24436   0.00000  Uiso   1.00
H293   H     0.36824   0.99438   0.48082   0.00000  Uiso   1.00
H294   H     0.35980   0.89212   0.47841   0.00000  Uiso   1.00
H295   H     0.31018   0.90896   0.40609   0.00000  Uiso   1.00
H296   H     0.26828   0.02116   0.80811   0.00000  Uiso   1.00
H297   H     0.25834  -0.04649   0.88676   0.00000  Uiso   1.00
H298   H     0.32937  -0.01594   0.82006   0.00000  Uiso   1.00
H299   H     0.35560   0.08830   0.59772   0.00000  Uiso   1.00
H300   H     0.44280   0.20892   0.62411   0.00000  Uiso   1.00
H301   H     0.37973   0.13567   0.69250   0.00000  Uiso   1.00
H302   H     0.36534  -0.04292   0.71091   0.00000  Uiso   1.00
H303   H     0.44143  -0.05213   0.66974   0.00000  Uiso   1.00
H304   H     0.36012  -0.06612   0.61296   0.00000  Uiso   1.00
H305   H     0.69319   0.43837   0.15374   0.00000  Uiso   1.00
H306   H     0.64219   0.31408   0.15461   0.00000  Uiso   1.00
H307   H     0.61275   0.36960   0.22341   0.00000  Uiso   1.00
H308   H     0.70160   0.57921   0.15172   0.00000  Uiso   1.00
H309   H     0.76988   0.66344   0.08379   0.00000  Uiso   1.00
H310   H     0.76790   0.56871   0.09936   0.00000  Uiso   1.00
H311   H     0.66184   0.66649   1.00016   0.00000  Uiso   1.00
H312   H     0.58074   0.59176   1.07353   0.00000  Uiso   1.00
H313   H     0.54632   0.55472   0.97882   0.00000  Uiso   1.00
H314   H     0.41361   0.21796   0.50946   0.00000  Uiso   1.00
H315   H     0.38917   0.12835   0.44596   0.00000  Uiso   1.00
H316   H     0.35528   0.19731   0.42353   0.00000  Uiso   1.00
H317   H     0.55803   0.44457   0.35110   0.00000  Uiso   1.00
H318   H     0.50153   0.41611   0.44143   0.00000  Uiso   1.00
H319   H     0.44196   0.35289   0.35563   0.00000  Uiso   1.00
H320   H     0.57169   0.36195   0.53778   0.00000  Uiso   1.00
H321   H     0.64684   0.39786   0.46780   0.00000  Uiso   1.00
H322   H     0.58278   0.27651   0.50106   0.00000  Uiso   1.00
H323   H     0.42127   0.50248   0.43176   0.00000  Uiso   1.00
H324   H     0.43973   0.58016   0.35615   0.00000  Uiso   1.00
H325   H     0.39945   0.45613   0.34902   0.00000  Uiso   1.00
H326   H     0.32502   0.56417   0.27581   0.00000  Uiso   1.00
H327   H     0.21106   0.48147   0.28344   0.00000  Uiso   1.00
H328   H     0.26285   0.44071   0.24486   0.00000  Uiso   1.00
H329   H     0.24805   0.55854   0.43417   0.00000  Uiso   1.00
H330   H     0.35803   0.62763   0.45037   0.00000  Uiso   1.00
H331   H     0.28529   0.52391   0.50568   0.00000  Uiso   1.00
H332   H    -0.10889   0.21529   0.52778   0.00000  Uiso   1.00
H333   H    -0.15647   0.17106   0.61593   0.00000  Uiso   1.00
H334   H    -0.06812   0.17528   0.59033   0.00000  Uiso   1.00
H335   H     0.58116   0.13673   0.73731   0.00000  Uiso   1.00
H336   H     0.49580   0.11937   0.78741   0.00000  Uiso   1.00
H337   H     0.58740   0.24100   0.74539   0.00000  Uiso   1.00
H338   H     0.55279   0.32592   0.70552   0.00000  Uiso   1.00
H339   H     0.56574   0.42414   0.72907   0.00000  Uiso   1.00
H340   H     0.46260   0.30663   0.70615   0.00000  Uiso   1.00
H341   H     0.48029   0.38296   0.93982   0.00000  Uiso   1.00
H342   H     0.41065   0.33234   0.85855   0.00000  Uiso   1.00
H343   H     0.51129   0.45869   0.85995   0.00000  Uiso   1.00
H344   H     0.35269   0.73141   0.10306   0.00000  Uiso   1.00
H345   H     0.31120   0.76154   0.04464   0.00000  Uiso   1.00
H346   H     0.24667   0.68751   0.11635   0.00000  Uiso   1.00
H347   H     0.22698   0.78995   0.20664   0.00000  Uiso   1.00
H348   H     0.25351   0.87037   0.14186   0.00000  Uiso   1.00
H349   H     0.29832   0.91149   0.23714   0.00000  Uiso   1.00
H350   H     0.02720   0.83815   0.67564   0.00000  Uiso   1.00
H351   H    -0.06529   0.72512   0.63512   0.00000  Uiso   1.00
H352   H    -0.02549   0.83937   0.59019   0.00000  Uiso   1.00
H353   H     0.60631   0.94436   0.18036   0.00000  Uiso   1.00
H354   H     0.60169   0.84372   0.14572   0.00000  Uiso   1.00
H355   H     0.50543   0.82033   0.16030   0.00000  Uiso   1.00
H356   H     0.49382   0.82235   0.92675   0.00000  Uiso   1.00
H357   H     0.44720   0.74827   1.00855   0.00000  Uiso   1.00
H358   H     0.54529   0.77541   0.96936   0.00000  Uiso   1.00
H359   H     0.70513   0.93596   1.03409   0.00000  Uiso   1.00
H360   H     0.73014   1.05291   1.05513   0.00000  Uiso   1.00
H361   H     0.69632   1.00155   0.96007   0.00000  Uiso   1.00
H362   H     0.28126   0.77698   0.34216   0.00000  Uiso   1.00
H363   H     0.31244   0.72759   0.40863   0.00000  Uiso   1.00
H364   H     0.27557   0.67274   0.31044   0.00000  Uiso   1.00
H365   H     0.46298   0.73383   0.28662   0.00000  Uiso   1.00
H366   H     0.48712   0.77417   0.38395   0.00000  Uiso   1.00
H367   H     0.55563   0.85942   0.32284   0.00000  Uiso   1.00
H368   H     0.35995   0.78760   0.61348   0.00000  Uiso   1.00
H369   H     0.34011   0.68037   0.57077   0.00000  Uiso   1.00
H370   H     0.43345   0.79275   0.55783   0.00000  Uiso   1.00
H371   H     0.32862   0.65541   0.77092   0.00000  Uiso   1.00
H372   H     0.40375   0.63171   0.77664   0.00000  Uiso   1.00
H373   H     0.30924   0.56394   0.70764   0.00000  Uiso   1.00
H374   H     0.45748   0.84390   0.77183   0.00000  Uiso   1.00
H375   H     0.55365   0.91640   0.71601   0.00000  Uiso   1.00
H376   H     0.54116   0.84231   0.78468   0.00000  Uiso   1.00
H377   H     0.61305   0.70365   0.50320   0.00000  Uiso   1.00
H378   H     0.50797   0.67566   0.48989   0.00000  Uiso   1.00
H379   H     0.52251   0.59873   0.54284   0.00000  Uiso   1.00
H380   H     0.67902   0.91519   0.64291   0.00000  Uiso   1.00
H381   H     0.61864   0.89393   0.55482   0.00000  Uiso   1.00
H382   H     0.70536   0.89629   0.55589   0.00000  Uiso   1.00
H383   H     1.11924   0.48055   1.11648   0.00000  Uiso   1.00
H384   H     1.07313   0.36983   1.15005   0.00000  Uiso   1.00
H385   H     1.06292   0.43858   1.20458   0.00000  Uiso   1.00
H386   H     0.91228   0.19556   0.07133   0.00000  Uiso   1.00
H387   H     1.00760   0.28330   0.02542   0.00000  Uiso   1.00
H388   H     0.91008   0.25121  -0.01400   0.00000  Uiso   1.00
H389   H     0.57689   0.02687   0.63413   0.00000  Uiso   1.00
H390   H     0.65749   0.05601   0.57713   0.00000  Uiso   1.00
H391   H     0.54618  -0.03697   0.54368   0.00000  Uiso   1.00
H392   H     0.71133   0.04278   0.47178   0.00000  Uiso   1.00
H393   H     0.67914  -0.01892   0.38239   0.00000  Uiso   1.00
H394   H     0.61886   0.00690   0.42397   0.00000  Uiso   1.00
H395   H     0.62410   0.02063   0.88319   0.00000  Uiso   1.00
H396   H     0.59311   0.04256   0.79948   0.00000  Uiso   1.00
H397   H     0.52484   0.00015   0.87201   0.00000  Uiso   1.00
H398   H     0.78124   0.28459   0.99364   0.00000  Uiso   1.00
H399   H     0.77159   0.18591   0.94981   0.00000  Uiso   1.00
H400   H     0.70004   0.15685   1.02508   0.00000  Uiso   1.00
H401   H     1.02000   0.45593   0.98365   0.00000  Uiso   1.00
H402   H     1.01119   0.52334   1.05332   0.00000  Uiso   1.00
H403   H     0.91342   0.42272   1.01347   0.00000  Uiso   1.00
H404   H     0.89275   0.48246   0.11873   0.00000  Uiso   1.00
H405   H     0.81513   0.45597   0.17438   0.00000  Uiso   1.00
H406   H     0.78214   0.38323   0.09462   0.00000  Uiso   1.00
H407   H     0.79087   0.52345   0.29320   0.00000  Uiso   1.00
H408   H     0.69797   0.43630   0.34784   0.00000  Uiso   1.00
H409   H     0.73959   0.39987   0.28935   0.00000  Uiso   1.00
H410   H     0.80438   0.25893   0.66162   0.00000  Uiso   1.00
H411   H     0.70584   0.22880   0.67430   0.00000  Uiso   1.00
H412   H     0.72248   0.15373   0.71368   0.00000  Uiso   1.00
H413   H     0.94011   0.38015   0.80220   0.00000  Uiso   1.00
H414   H     0.87404   0.25315   0.83500   0.00000  Uiso   1.00
H415   H     0.89251   0.34577   0.89228   0.00000  Uiso   1.00
H416   H     0.78342   0.42039   0.90200   0.00000  Uiso   1.00
H417   H     0.73315   0.41081   0.98982   0.00000  Uiso   1.00
H418   H     0.83370   0.52338   0.95746   0.00000  Uiso   1.00
H419   H     0.73372   0.43159   0.58887   0.00000  Uiso   1.00
H420   H     0.69258   0.43156   0.68213   0.00000  Uiso   1.00
H421   H     0.68467   0.32971   0.64304   0.00000  Uiso   1.00
H422   H     0.81924   0.77849  -0.00883   0.00000  Uiso   1.00
H423   H     0.88268   0.75215  -0.04372   0.00000  Uiso   1.00
H424   H     0.79877   0.72351  -0.10116   0.00000  Uiso   1.00
H425   H     1.02866   0.89816  -0.14231   0.00000  Uiso   1.00
H426   H     1.03714   0.99095  -0.18533   0.00000  Uiso   1.00
H427   H     0.95819   0.87099  -0.21604   0.00000  Uiso   1.00
H428   H     1.00312   0.95359   0.01166   0.00000  Uiso   1.00
H429   H     0.94964   0.99654   0.02643   0.00000  Uiso   1.00
H430   H     1.03515   1.06267  -0.03793   0.00000  Uiso   1.00
H431   H     1.12477   0.76298   0.78923   0.00000  Uiso   1.00
H432   H     1.10902   0.84616   0.79129   0.00000  Uiso   1.00
H433   H     1.03165   0.73375   0.73258   0.00000  Uiso   1.00
H434   H     0.97091   1.11863   0.80463   0.00000  Uiso   1.00
H435   H     0.90323   1.13595   0.77095   0.00000  Uiso   1.00
H436   H     0.89790   1.04483   0.71860   0.00000  Uiso   1.00
H437   H     0.92862   1.11452  -0.05379   0.00000  Uiso   1.00
H438   H     0.82865   1.01773  -0.01709   0.00000  Uiso   1.00
H439   H     0.83806   1.10374  -0.07594   0.00000  Uiso   1.00
H440   H     0.72317   0.97783   0.78957   0.00000  Uiso   1.00
H441   H     0.68650   0.88068   0.85563   0.00000  Uiso   1.00
H442   H     0.71574   0.87935   0.76430   0.00000  Uiso   1.00
H443   H     0.76461   0.83037   0.47547   0.00000  Uiso   1.00
H444   H     0.86838   0.90998   0.44730   0.00000  Uiso   1.00
H445   H     0.81920   0.78886   0.47422   0.00000  Uiso   1.00
H446   H     0.79379   0.57050   0.48507   0.00000  Uiso   1.00
H447   H     0.89454   0.65255   0.44386   0.00000  Uiso   1.00
H448   H     0.88624   0.58771   0.52213   0.00000  Uiso   1.00
H449   H     0.62536   0.70383   0.36152   0.00000  Uiso   1.00
H450   H     0.64958   0.73317   0.25894   0.00000  Uiso   1.00
H451   H     0.68672   0.83171   0.32480   0.00000  Uiso   1.00
H452   H     0.71047   0.63006   0.28291   0.00000  Uiso   1.00
H453   H     0.69323   0.61127   0.37994   0.00000  Uiso   1.00
H454   H     0.79680   0.66212   0.34825   0.00000  Uiso   1.00
H455   H     0.59037   0.71891   0.82519   0.00000  Uiso   1.00
H456   H     0.61620   0.64791   0.85233   0.00000  Uiso   1.00
H457   H     0.51045   0.58741   0.81865   0.00000  Uiso   1.00
H458   H     0.46151   0.51802   0.65474   0.00000  Uiso   1.00
H459   H     0.47806   0.46397   0.71997   0.00000  Uiso   1.00
H460   H     0.53221   0.49519   0.63262   0.00000  Uiso   1.00
H461   H     1.01418   1.03538   0.24303   0.00000  Uiso   1.00
H462   H     0.95557   1.06141   0.20331   0.00000  Uiso   1.00
H463   H     0.99997   1.01898   0.14680   0.00000  Uiso   1.00
H464   H     0.95676   0.84198   0.22169   0.00000  Uiso   1.00
H465   H     0.91640   0.80100   0.12272   0.00000  Uiso   1.00
H466   H     0.85576   0.73268   0.20108   0.00000  Uiso   1.00
H467   H     0.75546   0.87948   0.16225   0.00000  Uiso   1.00
H468   H     0.72328   0.76631   0.13833   0.00000  Uiso   1.00
H469   H     0.79428   0.86386   0.08246   0.00000  Uiso   1.00
H470   H     0.71815   0.56876   0.60513   0.00000  Uiso   1.00
H471   H     0.81009   0.66958   0.56806   0.00000  Uiso   1.00
H472   H     0.71560   0.65440   0.55551   0.00000  Uiso   1.00
H473   H     0.78947   0.83138   0.62730   0.00000  Uiso   1.00
H474   H     0.89354   0.86643   0.65193   0.00000  Uiso   1.00
H475   H     0.83015   0.86367   0.72230   0.00000  Uiso   1.00
loop_
_geom_bond_atom_site_label_1
_geom_bond_atom_site_label_2
_geom_bond_distance
_geom_bond_site_symmetry_2
_ccdc_geom_bond_type
Si1    O55     1.550   .     S
Si1    O93     1.616   .     S
Si1    C52     1.866   1_545 S
Si1    O83     1.588   1_545 S
Si2    C53     1.880   .     S
Si2    C63     1.901   .     S
Si2    C54     1.940   1_455 S
Si2    O148    1.633   1_455 S
Si3    O55     1.596   .     S
Si3    O65     1.592   .     S
Si3    C56     1.816   1_554 S
Si3    O101    1.594   1_554 S
Si4    C57     1.765   .     S
Si4    C58     1.927   .     S
Si4    C59     1.921   1_545 S
Si4    O90     1.644   1_545 S
Si5    C60     1.861   .     S
Si5    C61     1.886   .     S
Si5    C62     1.863   .     S
Si5    O77     1.590   .     S
Si6    C64     1.835   .     S
Si6    O65     1.610   .     S
Si6    C66     1.828   .     S
Si6    O69     1.604   .     S
Si7    C67     1.906   .     S
Si7    C68     1.809   .     S
Si7    O158    1.584   1_455 S
Si7    O162    1.629   1_455 S
Si8    O69     1.608   .     S
Si8    C70     1.916   .     S
Si8    C71     1.904   1_554 S
Si8    C72     1.876   1_554 S
Si9    C73     1.872   .     S
Si9    C74     1.778   .     S
Si9    C75     1.827   .     S
Si9    O114    1.606   .     S
Si10   O79     1.573   .     S
Si10   O85     1.588   .     S
Si10   O161    1.585   1_455 S
Si10   O171    1.566   1_455 S
Si11   C76     1.857   .     S
Si11   O77     1.600   .     S
Si11   C78     1.893   .     S
Si11   O80     1.575   .     S
Si12   O79     1.600   .     S
Si12   O80     1.593   .     S
Si12   C81     1.889   .     S
Si12   C118    1.938   .     S
Si13   C82     1.905   .     S
Si13   O83     1.636   .     S
Si13   C84     1.870   1_554 S
Si13   O91     1.626   1_554 S
Si14   O85     1.631   .     S
Si14   C86     1.865   .     S
Si14   C87     1.857   .     S
Si14   O89     1.585   .     S
Si15   C88     1.901   .     S
Si15   O89     1.569   .     S
Si15   O90     1.623   .     S
Si15   C126    1.906   .     S
Si16   O91     1.656   .     S
Si16   C92     1.829   .     S
Si16   C177    1.861   1_455 S
Si16   O195    1.529   1_455 S
Si17   O95     1.601   .     S
Si17   O141    1.595   .     S
Si17   O124    1.624   1_545 S
Si17   O128    1.590   1_545 S
Si18   O93     1.613   .     S
Si18   C94     1.890   .     S
Si18   O97     1.615   .     S
Si18   O104    1.630   .     S
Si19   O95     1.593   .     S
Si19   O105    1.568   .     S
Si19   O100    1.577   1_554 S
Si19   O154    1.588   1_554 S
Si20   O98     1.553   .     S
Si20   O145    1.618   .     S
Si20   C96     1.777   1_545 S
Si20   O133    1.612   1_545 S
Si21   O97     1.595   .     S
Si21   O98     1.612   .     S
Si21   O111    1.597   .     S
Si21   O142    1.637   .     S
Si22   C99     1.914   .     S
Si22   O100    1.590   .     S
Si22   O101    1.548   .     S
Si22   O119    1.599   .     S
Si23   C102    1.871   .     S
Si23   C103    1.881   .     S
Si23   C120    1.849   .     S
Si23   O147    1.577   .     S
Si24   O104    1.565   .     S
Si24   O105    1.553   .     S
Si24   C106    1.900   .     S
Si24   O107    1.566   .     S
Si25   O107    1.628   .     S
Si25   C108    1.871   .     S
Si25   C109    1.870   1_554 S
Si25   O170    1.578   1_554 S
Si26   C110    1.811   .     S
Si26   O111    1.603   .     S
Si26   C112    1.857   .     S
Si26   C113    1.851   .     S
Si27   O114    1.625   .     S
Si27   C115    1.836   .     S
Si27   C116    1.860   .     S
Si27   C117    1.882   .     S
Si28   O119    1.568   .     S
Si28   C121    1.837   .     S
Si28   C122    1.877   .     S
Si28   O168    1.582   .     S
Si29   C123    1.847   .     S
Si29   O124    1.611   .     S
Si29   C125    1.881   .     S
Si29   O131    1.623   .     S
Si30   C127    1.869   .     S
Si30   O128    1.595   .     S
Si30   C129    1.887   1_554 S
Si30   C130    1.864   1_554 S
Si31   O131    1.630   .     S
Si31   C132    1.872   .     S
Si31   O133    1.614   .     S
Si31   C134    1.884   .     S
Si32   C135    1.855   .     S
Si32   C136    1.922   .     S
Si32   C137    1.849   .     S
Si32   O139    1.591   .     S
Si33   C138    1.801   .     S
Si33   O139    1.584   .     S
Si33   C140    1.849   .     S
Si33   O188    1.543   .     S
Si34   O141    1.567   .     S
Si34   O142    1.636   .     S
Si34   O149    1.614   .     S
Si34   O155    1.631   .     S
Si35   C144    1.882   .     S
Si35   O156    1.596   .     S
Si35   C143    1.860   1_554 S
Si35   C153    1.842   1_554 S
Si36   O145    1.606   .     S
Si36   C146    1.879   .     S
Si36   O147    1.602   .     S
Si36   O159    1.660   .     S
Si37   O148    1.593   .     S
Si37   O149    1.585   .     S
Si37   C150    1.836   .     S
Si37   O160    1.610   .     S
Si38   C151    1.857   .     S
Si38   C152    1.873   .     S
Si38   O154    1.582   .     S
Si38   O165    1.562   .     S
Si39   O155    1.627   .     S
Si39   O156    1.605   .     S
Si39   C157    1.858   .     S
Si39   O158    1.665   .     S
Si40   O159    1.541   .     S
Si40   O160    1.600   .     S
Si40   O161    1.634   .     S
Si40   O164    1.563   .     S
Si41   O162    1.614   .     S
Si41   C163    1.819   .     S
Si41   O164    1.586   .     S
Si41   C183    1.886   .     S
Si42   O165    1.567   .     S
Si42   C166    1.815   .     S
Si42   C167    1.883   .     S
Si42   O173    1.602   .     S
Si43   O168    1.599   .     S
Si43   C169    1.862   .     S
Si43   O170    1.571   .     S
Si43   O193    1.602   .     S
Si44   O171    1.568   .     S
Si44   C172    1.827   .     S
Si44   O173    1.549   .     S
Si44   O194    1.619   .     S
Si45   C174    1.862   .     S
Si45   C175    1.840   .     S
Si45   C176    1.844   .     S
Si45   O179    1.606   .     S
Si46   O179    1.590   .     S
Si46   C180    1.864   .     S
Si46   C178    1.854   1_554 S
Si46   C181    1.823   1_554 S
Si47   C182    1.908   .     S
Si47   C184    1.898   .     S
Si47   C185    1.839   .     S
Si47   O191    1.626   .     S
Si48   C186    1.835   .     S
Si48   C187    1.848   .     S
Si48   O188    1.575   .     S
Si48   O197    1.546   .     S
Si49   C189    1.891   .     S
Si49   C190    1.866   .     S
Si49   O191    1.577   .     S
Si49   C192    1.928   .     S
Si50   O193    1.568   .     S
Si50   O194    1.654   .     S
Si50   O195    1.574   .     S
Si50   O198    1.602   .     S
Si51   C196    1.844   .     S
Si51   O197    1.550   .     S
Si51   O198    1.658   .     S
Si51   C199    1.833   .     S
C52    H200    1.084   .     S
C52    H201    1.038   .     S
C52    H202    1.114   .     S
C52    Si1     1.866   1_565 S
C53    H203    1.114   .     S
C53    H204    1.081   .     S
C53    H205    1.082   .     S
C54    H206    1.072   .     S
C54    H207    1.112   .     S
C54    H208    1.115   .     S
C54    Si2     1.940   1_655 S
C56    H209    1.111   .     S
C56    H210    1.129   .     S
C56    H211    1.088   .     S
C56    Si3     1.816   1_556 S
C57    H212    1.106   .     S
C57    H213    1.126   .     S
C57    H214    1.143   .     S
C58    H215    1.126   .     S
C58    H216    1.164   .     S
C58    H217    1.095   .     S
C59    H218    1.083   .     S
C59    H219    1.142   .     S
C59    H220    1.119   .     S
C59    Si4     1.921   1_565 S
C60    H221    1.072   .     S
C60    H222    1.131   .     S
C60    H223    1.133   .     S
C61    H224    1.128   .     S
C61    H225    1.105   .     S
C61    H226    1.144   .     S
C62    H227    1.076   .     S
C62    H228    1.073   .     S
C62    H229    1.087   .     S
C63    H230    1.141   .     S
C63    H231    1.108   .     S
C63    H232    1.057   .     S
C64    H233    1.149   .     S
C64    H234    1.085   .     S
C64    H235    1.113   .     S
C66    H236    1.127   .     S
C66    H237    1.116   .     S
C66    H238    1.092   .     S
C67    H239    1.127   .     S
C67    H240    1.074   .     S
C67    H241    1.116   .     S
C68    H242    1.166   .     S
C68    H243    1.131   .     S
C68    H244    1.135   .     S
C70    H245    1.065   .     S
C70    H246    1.088   .     S
C70    H247    1.105   .     S
C71    H248    1.147   .     S
C71    H249    1.111   .     S
C71    H250    1.105   .     S
C71    Si8     1.904   1_556 S
C72    H251    1.161   .     S
C72    H252    1.177   .     S
C72    H253    1.127   .     S
C72    Si8     1.876   1_556 S
C73    H254    1.100   .     S
C73    H255    1.173   .     S
C73    H256    1.076   .     S
C74    H257    1.081   .     S
C74    H258    1.135   .     S
C74    H259    1.125   .     S
C75    H260    1.080   .     S
C75    H261    1.109   .     S
C75    H262    1.074   .     S
C76    H263    1.068   .     S
C76    H264    1.113   .     S
C76    H265    1.147   .     S
C78    H266    1.152   .     S
C78    H267    1.129   .     S
C78    H268    1.151   .     S
C81    H269    1.108   .     S
C81    H270    1.099   .     S
C81    H271    1.088   .     S
C82    H272    1.094   .     S
C82    H273    1.106   .     S
C82    H274    1.134   .     S
O83    Si1     1.588   1_565 S
C84    H275    1.121   .     S
C84    H276    1.146   .     S
C84    H277    1.119   .     S
C84    Si13    1.870   1_556 S
C86    H278    1.082   .     S
C86    H279    1.162   .     S
C86    H280    1.100   .     S
C87    H281    1.074   .     S
C87    H282    1.152   .     S
C87    H283    1.075   .     S
C88    H284    1.092   .     S
C88    H285    1.068   .     S
C88    H286    1.108   .     S
O90    Si4     1.644   1_565 S
O91    Si13    1.626   1_556 S
C92    H287    1.130   .     S
C92    H288    1.125   .     S
C92    H289    1.072   .     S
C94    H290    1.089   .     S
C94    H291    1.135   .     S
C94    H292    1.108   .     S
C96    H293    1.062   .     S
C96    H294    1.099   .     S
C96    H295    1.114   .     S
C96    Si20    1.777   1_565 S
C99    H296    1.102   .     S
C99    H297    1.110   .     S
C99    H298    1.070   .     S
O100   Si19    1.577   1_556 S
O101   Si3     1.594   1_556 S
C102   H299    1.077   .     S
C102   H300    1.101   .     S
C102   H301    1.103   .     S
C103   H302    1.121   .     S
C103   H303    1.113   .     S
C103   H304    1.096   .     S
C106   H305    1.080   .     S
C106   H306    1.085   .     S
C106   H307    1.152   .     S
C108   H308    1.133   .     S
C108   H309    1.074   .     S
C108   H310    1.057   .     S
C109   H311    1.123   .     S
C109   H312    1.092   .     S
C109   H313    1.120   .     S
C109   Si25    1.870   1_556 S
C110   H314    1.117   .     S
C110   H315    1.101   .     S
C110   H316    1.098   .     S
C112   H317    1.127   .     S
C112   H318    1.117   .     S
C112   H319    1.115   .     S
C113   H320    1.110   .     S
C113   H321    1.087   .     S
C113   H322    1.117   .     S
C115   H323    1.057   .     S
C115   H324    1.136   .     S
C115   H325    1.067   .     S
C116   H326    1.076   .     S
C116   H327    1.110   .     S
C116   H328    1.080   .     S
C117   H329    1.096   .     S
C117   H330    1.126   .     S
C117   H331    1.084   .     S
C118   H332    1.088   .     S
C118   H333    1.090   .     S
C118   H334    1.104   .     S
C120   H335    1.108   .     S
C120   H336    1.126   .     S
C120   H337    1.120   .     S
C121   H338    1.060   .     S
C121   H339    1.057   .     S
C121   H340    1.075   .     S
C122   H341    1.096   .     S
C122   H342    1.133   .     S
C122   H343    1.158   .     S
C123   H344    1.052   .     S
C123   H345    1.038   .     S
C123   H346    1.105   .     S
O124   Si17    1.624   1_565 S
C125   H347    1.101   .     S
C125   H348    1.045   .     S
C125   H349    1.077   .     S
C126   H350    1.091   .     S
C126   H351    1.085   .     S
C126   H352    1.183   .     S
C127   H353    1.119   .     S
C127   H354    1.128   .     S
C127   H355    1.110   .     S
O128   Si17    1.590   1_565 S
C129   H356    1.084   .     S
C129   H357    1.153   .     S
C129   H358    1.149   .     S
C129   Si30    1.887   1_556 S
C130   H359    1.146   .     S
C130   H360    1.119   .     S
C130   H361    1.144   .     S
C130   Si30    1.864   1_556 S
C132   H362    1.124   .     S
C132   H363    1.104   .     S
C132   H364    1.176   .     S
O133   Si20    1.612   1_565 S
C134   H365    1.149   .     S
C134   H366    1.113   .     S
C134   H367    1.102   .     S
C135   H368    1.136   .     S
C135   H369    1.089   .     S
C135   H370    1.089   .     S
C136   H371    1.143   .     S
C136   H372    1.100   .     S
C136   H373    1.110   .     S
C137   H374    1.090   .     S
C137   H375    1.072   .     S
C137   H376    1.142   .     S
C138   H377    1.108   .     S
C138   H378    1.129   .     S
C138   H379    1.111   .     S
C140   H380    1.102   .     S
C140   H381    1.098   .     S
C140   H382    1.119   .     S
C143   H383    1.058   .     S
C143   H384    1.043   .     S
C143   H385    1.097   .     S
C143   Si35    1.860   1_556 S
C144   H386    1.098   .     S
C144   H387    1.155   .     S
C144   H388    1.094   .     S
C146   H389    1.113   .     S
C146   H390    1.070   .     S
C146   H391    1.101   .     S
O148   Si2     1.633   1_655 S
C150   H392    1.080   .     S
C150   H393    1.087   .     S
C150   H394    1.110   .     S
C151   H395    1.060   .     S
C151   H396    1.166   .     S
C151   H397    1.119   .     S
C152   H398    1.131   .     S
C152   H399    1.124   .     S
C152   H400    1.124   .     S
C153   H401    1.183   .     S
C153   H402    1.103   .     S
C153   H403    1.113   .     S
C153   Si35    1.842   1_556 S
O154   Si19    1.588   1_556 S
C157   H404    1.115   .     S
C157   H405    1.101   .     S
C157   H406    1.078   .     S
O158   Si7     1.584   1_655 S
O161   Si10    1.585   1_655 S
O162   Si7     1.629   1_655 S
C163   H407    1.147   .     S
C163   H408    1.100   .     S
C163   H409    1.082   .     S
C166   H410    1.078   .     S
C166   H411    1.066   .     S
C166   H412    1.106   .     S
C167   H413    1.101   .     S
C167   H414    1.179   .     S
C167   H415    1.121   .     S
C169   H416    1.124   .     S
C169   H417    1.112   .     S
C169   H418    1.103   .     S
O170   Si25    1.578   1_556 S
O171   Si10    1.566   1_655 S
C172   H419    1.117   .     S
C172   H420    1.135   .     S
C172   H421    1.107   .     S
C174   H422    1.115   .     S
C174   H423    1.150   .     S
C174   H424    1.126   .     S
C175   H425    1.121   .     S
C175   H426    1.081   .     S
C175   H427    1.092   .     S
C176   H428    1.090   .     S
C176   H429    1.127   .     S
C176   H430    1.136   .     S
C177   H431    1.128   .     S
C177   H432    1.088   .     S
C177   H433    1.126   .     S
C177   Si16    1.861   1_655 S
C178   H434    1.133   .     S
C178   H435    1.084   .     S
C178   H436    1.114   .     S
C178   Si46    1.854   1_556 S
C180   H437    1.081   .     S
C180   H438    1.112   .     S
C180   H439    1.082   .     S
C181   H440    1.097   .     S
C181   H441    1.110   .     S
C181   H442    1.071   .     S
C181   Si46    1.823   1_556 S
C182   H443    1.087   .     S
C182   H444    1.102   .     S
C182   H445    1.069   .     S
C183   H446    1.140   .     S
C183   H447    1.093   .     S
C183   H448    1.098   .     S
C184   H449    1.177   .     S
C184   H450    1.107   .     S
C184   H451    1.136   .     S
C185   H452    1.145   .     S
C185   H453    1.088   .     S
C185   H454    1.090   .     S
C186   H455    1.096   .     S
C186   H456    1.085   .     S
C186   H457    1.139   .     S
C187   H458    1.131   .     S
C187   H459    1.103   .     S
C187   H460    1.120   .     S
C189   H461    1.023   .     S
C189   H462    1.146   .     S
C189   H463    1.159   .     S
C190   H464    1.056   .     S
C190   H465    1.105   .     S
C190   H466    1.099   .     S
C192   H467    1.143   .     S
C192   H468    1.093   .     S
C192   H469    1.039   .     S
O195   Si16    1.529   1_655 S
C196   H470    1.075   .     S
C196   H471    1.107   .     S
C196   H472    1.098   .     S
C199   H473    1.155   .     S
C199   H474    1.090   .     S
C199   H475    1.089   .     S
