data_333-7-11-18-15-30-9
_audit_creation_date              2025-03-07
_audit_creation_method            'Materials Studio'
_symmetry_space_group_name_H-M    'P1'
_symmetry_Int_Tables_number       1
_symmetry_cell_setting            triclinic
loop_
_symmetry_equiv_pos_as_xyz
  x,y,z
_cell_length_a                    18.3717
_cell_length_b                    16.4706
_cell_length_c                    19.5635
_cell_angle_alpha                 84.2671
_cell_angle_beta                  81.2724
_cell_angle_gamma                 106.9603
loop_
_atom_site_label
_atom_site_type_symbol
_atom_site_fract_x
_atom_site_fract_y
_atom_site_fract_z
_atom_site_U_iso_or_equiv
_atom_site_adp_type
_atom_site_occupancy
Si1    Si   -0.06947   0.11666   0.13319   0.00000  Uiso   1.00
Si2    Si    0.25395   0.17003   0.54419   0.00000  Uiso   1.00
Si3    Si   -0.15663   0.07803   0.51033   0.00000  Uiso   1.00
Si4    Si   -0.20554  -0.01880   0.83310   0.00000  Uiso   1.00
Si5    Si   -0.00300   0.27134   0.01697   0.00000  Uiso   1.00
Si6    Si    0.06379   0.43364   0.53276   0.00000  Uiso   1.00
Si7    Si    0.21589   0.63411   0.36501   0.00000  Uiso   1.00
Si8    Si   -0.13619   0.37942   0.80959   0.00000  Uiso   1.00
Si9    Si   -0.01673   0.85621   0.30157   0.00000  Uiso   1.00
Si10   Si    0.02256   0.59677   0.14074   0.00000  Uiso   1.00
Si11   Si    0.16495   0.62238   0.52093   0.00000  Uiso   1.00
Si12   Si    0.03216   0.84772   0.65260   0.00000  Uiso   1.00
Si13   Si    0.11314   0.74672   0.73877   0.00000  Uiso   1.00
Si14   Si    0.49914   0.06890   0.01255   0.00000  Uiso   1.00
Si15   Si    0.59627   0.27001   0.22136   0.00000  Uiso   1.00
Si16   Si    0.39708   0.18212   0.00459   0.00000  Uiso   1.00
Si17   Si    0.31168   0.19790   0.68038   0.00000  Uiso   1.00
Si18   Si    0.65807   0.28683   0.35900   0.00000  Uiso   1.00
Si19   Si    0.47457   0.35198   0.90843   0.00000  Uiso   1.00
Si20   Si    0.46893   0.21081   0.72455   0.00000  Uiso   1.00
Si21   Si    0.56013   0.37064   0.44968   0.00000  Uiso   1.00
Si22   Si    0.37439   0.51219   0.58014   0.00000  Uiso   1.00
Si23   Si    0.55239   0.38749   0.75091   0.00000  Uiso   1.00
Si24   Si    0.48654   0.68059   0.88946   0.00000  Uiso   1.00
Si25   Si    0.50508   0.51913   0.65727   0.00000  Uiso   1.00
Si26   Si    0.70916   0.65521   0.12631   0.00000  Uiso   1.00
Si27   Si    0.50642   0.95447   0.13897   0.00000  Uiso   1.00
Si28   Si    0.54238   0.78181   0.34871   0.00000  Uiso   1.00
Si29   Si    0.23190   0.68390   0.64848   0.00000  Uiso   1.00
Si30   Si    0.62354   0.90030   0.21271   0.00000  Uiso   1.00
Si31   Si    0.48057   0.66003   0.73597   0.00000  Uiso   1.00
Si32   Si    0.17663   0.72550   1.07528   0.00000  Uiso   1.00
Si33   Si    0.30123   0.61162   0.76229   0.00000  Uiso   1.00
Si34   Si    0.86842  -0.05615   0.08718   0.00000  Uiso   1.00
Si35   Si    0.82924   0.31166   0.29908   0.00000  Uiso   1.00
Si36   Si    0.76578  -0.01252  -0.01343   0.00000  Uiso   1.00
Si37   Si    0.80479  -0.01080   0.38283   0.00000  Uiso   1.00
Si38   Si    0.49700   0.05467   0.67315   0.00000  Uiso   1.00
Si39   Si    0.88246   0.15130   0.28030   0.00000  Uiso   1.00
Si40   Si    0.78923   0.50294  -0.12153   0.00000  Uiso   1.00
Si41   Si    0.63536   0.51373   0.53865   0.00000  Uiso   1.00
Si42   Si    0.76620   0.30785   0.70071   0.00000  Uiso   1.00
Si43   Si    0.70330   0.52362   0.75971   0.00000  Uiso   1.00
Si44   Si    0.74859   0.42486   0.57961   0.00000  Uiso   1.00
Si45   Si    0.74960   0.81300   0.19780   0.00000  Uiso   1.00
Si46   Si    1.01268   0.93244  -0.01197   0.00000  Uiso   1.00
Si47   Si    0.75093   0.64035   0.42062   0.00000  Uiso   1.00
Si48   Si    0.63087   0.89401   0.44105   0.00000  Uiso   1.00
Si49   Si    0.80865   0.81871   0.33941   0.00000  Uiso   1.00
Si50   Si    0.84507   0.57435   0.63313   0.00000  Uiso   1.00
Si51   Si    0.88324   0.77046   0.59623   0.00000  Uiso   1.00
C52    C     0.02575   0.10436   0.14283   0.00000  Uiso   1.00
C53    C     0.28058   0.25504   0.46533   0.00000  Uiso   1.00
C54    C     0.28442   1.08001   0.51862   0.00000  Uiso   1.00
C55    C    -0.22729   0.00207   0.58583   0.00000  Uiso   1.00
C56    C    -0.05877   0.12140   0.53384   0.00000  Uiso   1.00
C57    C     0.80346   0.16778   0.48473   0.00000  Uiso   1.00
C58    C    -0.13225   0.05756   0.76194   0.00000  Uiso   1.00
C59    C    -0.30214  -0.01817   0.81364   0.00000  Uiso   1.00
C60    C     0.80214  -0.12856   0.83753   0.00000  Uiso   1.00
O61    O    -0.05706   0.18536   0.06662   0.00000  Uiso   1.00
C62    C     0.00151   0.24254  -0.07544   0.00000  Uiso   1.00
C63    C    -0.05059   0.35544   0.02548   0.00000  Uiso   1.00
C64    C     0.09821   0.30069   0.03078   0.00000  Uiso   1.00
C65    C     0.02948   0.36316   0.61739   0.00000  Uiso   1.00
C66    C     1.12552   0.39238   0.46890   0.00000  Uiso   1.00
C67    C     0.25745   0.75483   0.33235   0.00000  Uiso   1.00
C68    C     0.11881   0.59808   0.34917   0.00000  Uiso   1.00
C69    C     0.27651   0.57394   0.32366   0.00000  Uiso   1.00
C70    C    -0.18688   0.28511   0.87371   0.00000  Uiso   1.00
C71    C    -0.03240   0.38744   0.78280   0.00000  Uiso   1.00
C72    C     0.02727   0.78630   0.35041   0.00000  Uiso   1.00
C73    C     0.00371   0.96446   0.32752   0.00000  Uiso   1.00
C74    C     1.02529   0.86949   0.20406   0.00000  Uiso   1.00
C75    C    -0.03223   0.57864   0.06845   0.00000  Uiso   1.00
C76    C     0.06687   0.51157   0.15201   0.00000  Uiso   1.00
C77    C    -0.03116   0.61259   1.22421   0.00000  Uiso   1.00
O78    O     0.10275   0.52971   0.54482   0.00000  Uiso   1.00
O79    O     0.21522   0.62493   0.44596   0.00000  Uiso   1.00
C80    C     0.11330   0.70418   0.51895   0.00000  Uiso   1.00
C81    C     0.00147   0.92552   0.69926   0.00000  Uiso   1.00
C82    C     0.14773   1.15409   0.57339   0.00000  Uiso   1.00
O83    O     0.05449   0.78097   0.70362   0.00000  Uiso   1.00
C84    C     0.06010   0.68481   0.82269   0.00000  Uiso   1.00
C85    C     0.18207   0.83995   0.76041   0.00000  Uiso   1.00
C86    C     0.45195   0.98752  -0.03952   0.00000  Uiso   1.00
C87    C     0.48988   0.22423   0.25006   0.00000  Uiso   1.00
C88    C     0.64264   0.18599   0.19958   0.00000  Uiso   1.00
C89    C     0.62483   0.35774   0.14500   0.00000  Uiso   1.00
O90    O     0.44019   0.11829   0.03666   0.00000  Uiso   1.00
C91    C     0.31218   0.11562  -0.02873   0.00000  Uiso   1.00
C92    C     0.36476   0.23938   1.07631   0.00000  Uiso   1.00
O93    O     0.29918   0.21166   0.60215   0.00000  Uiso   1.00
C94    C     0.25840   0.08668   0.73240   0.00000  Uiso   1.00
O95    O     0.63097   0.30943   0.28570   0.00000  Uiso   1.00
C96    C     0.61627   0.16925   0.39516   0.00000  Uiso   1.00
C97    C     0.38789   0.38257   0.89546   0.00000  Uiso   1.00
O98    O     0.44696   0.25393   0.94004   0.00000  Uiso   1.00
C99    C     0.53114   0.42246   0.96420   0.00000  Uiso   1.00
O100   O     0.40299   0.22096   0.68556   0.00000  Uiso   1.00
C101   C     0.42524   0.15956   0.81602   0.00000  Uiso   1.00
C102   C     0.26159   0.26369   0.73121   0.00000  Uiso   1.00
C103   C     0.49650   0.28138   0.52236   0.00000  Uiso   1.00
O104   O     0.63066   0.33948   0.41549   0.00000  Uiso   1.00
C105   C     0.50805   0.39463   0.37985   0.00000  Uiso   1.00
C106   C     0.40408   0.46913   0.49699   0.00000  Uiso   1.00
C107   C     0.27018   0.46523   0.60534   0.00000  Uiso   1.00
O108   O     0.52414   0.36292   0.83460   0.00000  Uiso   1.00
O109   O     0.53487   0.30067   0.71929   0.00000  Uiso   1.00
C110   C     0.40395   0.59615   0.95197   0.00000  Uiso   1.00
C111   C     0.57886   0.69637   0.92431   0.00000  Uiso   1.00
C112   C     0.46869   0.78424   0.88514   0.00000  Uiso   1.00
O113   O     0.42314   0.49351   0.63481   0.00000  Uiso   1.00
O114   O     0.50629   0.44439   0.71562   0.00000  Uiso   1.00
C115   C     0.75777   0.72230   0.03856   0.00000  Uiso   1.00
C116   C     0.60697   0.61155   0.12898   0.00000  Uiso   1.00
C117   C     0.76308   0.57774   0.14942   0.00000  Uiso   1.00
C118   C     0.44182   0.86025   0.10739   0.00000  Uiso   1.00
O119   O     0.52789   1.03447   0.08033   0.00000  Uiso   1.00
C120   C     0.45067   0.97922   0.22028   0.00000  Uiso   1.00
C121   C     0.40294   0.63165   0.54495   0.00000  Uiso   1.00
C122   C     0.44720   0.77838   0.40171   0.00000  Uiso   1.00
C123   C     0.54290   0.66919   0.34670   0.00000  Uiso   1.00
O124   O     0.21450   0.63601   0.58273   0.00000  Uiso   1.00
C125   C     0.31035   0.79414   0.62062   0.00000  Uiso   1.00
O126   O     0.15561   0.69636   0.69100   0.00000  Uiso   1.00
O127   O     0.58179   0.92741   0.15315   0.00000  Uiso   1.00
O128   O     0.55971   0.83244   0.27392   0.00000  Uiso   1.00
C129   C     0.67727   0.99661   0.24158   0.00000  Uiso   1.00
O130   O     0.49743   0.65380   0.81622   0.00000  Uiso   1.00
O131   O     0.51898   0.60919   0.68261   0.00000  Uiso   1.00
C132   C     0.51653   0.77287   0.69392   0.00000  Uiso   1.00
C133   C     0.19659   0.73316   0.97769   0.00000  Uiso   1.00
C134   C     0.24641   0.67807   1.11772   0.00000  Uiso   1.00
C135   C     0.21055   0.83930   1.09629   0.00000  Uiso   1.00
O136   O     0.08797   0.68193   1.11239   0.00000  Uiso   1.00
O137   O     0.26279   0.62627   0.69766   0.00000  Uiso   1.00
O138   O     0.38851   0.61858   0.73970   0.00000  Uiso   1.00
C139   C     0.24782   0.50035   0.81205   0.00000  Uiso   1.00
O140   O     0.87623   0.02801   0.12135   0.00000  Uiso   1.00
C141   C     0.58197   0.15575  -0.04625   0.00000  Uiso   1.00
C142   C     0.82830   0.36460   0.20918   0.00000  Uiso   1.00
C143   C     0.90954   0.37833   0.33495   0.00000  Uiso   1.00
O144   O     0.74933   0.31406   0.34895   0.00000  Uiso   1.00
O145   O     0.80344   0.00898   0.90742   0.00000  Uiso   1.00
O146   O     0.81442  -0.05660   0.02858   0.00000  Uiso   1.00
C147   C     0.76054   0.08895   0.01710   0.00000  Uiso   1.00
C148   C     0.66585  -0.09022   1.00531   0.00000  Uiso   1.00
O149   O     0.84283   0.02372   0.44622   0.00000  Uiso   1.00
C150   C     0.42741   0.03863   0.60739   0.00000  Uiso   1.00
C151   C     0.44786  -0.02247   0.75495   0.00000  Uiso   1.00
C152   C     0.58718   0.02533   0.64552   0.00000  Uiso   1.00
O153   O     0.51011   0.14994   0.68933   0.00000  Uiso   1.00
O154   O     0.89125   0.15154   0.19769   0.00000  Uiso   1.00
O155   O     0.83254   0.21547   0.30037   0.00000  Uiso   1.00
O156   O     0.83511   0.05538   0.31400   0.00000  Uiso   1.00
C157   C     0.98214   0.19476   0.29727   0.00000  Uiso   1.00
O158   O     0.84913   0.45770   0.84908   0.00000  Uiso   1.00
C159   C     0.75546   0.46484  -0.02664   0.00000  Uiso   1.00
C160   C     0.85039   0.61924  -0.13089   0.00000  Uiso   1.00
O161   O     0.59525   0.45984   0.48134   0.00000  Uiso   1.00
O162   O     0.57107   0.53581   0.58969   0.00000  Uiso   1.00
C163   C     0.68074   0.22921   0.76203   0.00000  Uiso   1.00
C164   C     0.82981   0.24685   0.65506   0.00000  Uiso   1.00
O165   O     0.81615   0.37243   0.74893   0.00000  Uiso   1.00
O166   O     0.64218   0.44376   0.73707   0.00000  Uiso   1.00
O167   O     0.72157   0.49442   0.83357   0.00000  Uiso   1.00
C168   C     0.66503   0.61563   0.77046   0.00000  Uiso   1.00
C169   C     0.97236   0.42401   0.49877   0.00000  Uiso   1.00
C170   C     0.76583   0.36829   0.49997   0.00000  Uiso   1.00
O171   O     0.67627   0.45645   0.58023   0.00000  Uiso   1.00
O172   O     0.73296   0.35808   0.64845   0.00000  Uiso   1.00
O173   O     0.71649   0.71707   0.18354   0.00000  Uiso   1.00
O174   O     0.82721   0.85925   0.14326   0.00000  Uiso   1.00
O175   O     0.68608   0.85761   0.18351   0.00000  Uiso   1.00
C176   C     1.12030   0.97857   0.98628   0.00000  Uiso   1.00
C177   C     0.98582   0.81325  -0.00824   0.00000  Uiso   1.00
O178   O     0.95592   0.95148   0.05069   0.00000  Uiso   1.00
C179   C     0.99665   0.97353   0.89860   0.00000  Uiso   1.00
O180   O     0.69292   0.59939   0.49435   0.00000  Uiso   1.00
C181   C     0.72783   0.58088   0.34454   0.00000  Uiso   1.00
C182   C     0.84554   0.63407   0.43112   0.00000  Uiso   1.00
C183   C     1.11766   0.91119   0.59129   0.00000  Uiso   1.00
O184   O     0.60834   0.82442   0.39060   0.00000  Uiso   1.00
O185   O     0.71161   0.96837   0.40577   0.00000  Uiso   1.00
C186   C     0.55696   0.94636   0.46585   0.00000  Uiso   1.00
C187   C     0.28359   0.68197   0.82539   0.00000  Uiso   1.00
O188   O     0.89141   0.80995   0.31290   0.00000  Uiso   1.00
O189   O     0.75832   0.81735   0.27772   0.00000  Uiso   1.00
O190   O     0.76294   0.73951   0.39849   0.00000  Uiso   1.00
O191   O     0.82370   0.90333   0.37201   0.00000  Uiso   1.00
O192   O     0.78456   0.55039   0.70384   0.00000  Uiso   1.00
O193   O     0.81972   0.50485   0.58365   0.00000  Uiso   1.00
C194   C     0.94065   0.56324   0.64905   0.00000  Uiso   1.00
O195   O     0.97011   0.79997   0.61050   0.00000  Uiso   1.00
C196   C     0.64492   0.82493   0.51872   0.00000  Uiso   1.00
C197   C     0.87587   0.83286   0.51207   0.00000  Uiso   1.00
O198   O     0.85246   0.66904   0.59617   0.00000  Uiso   1.00
C199   C     0.82278   0.79887   0.66528   0.00000  Uiso   1.00
H200   H     0.01468   0.06081   0.19054   0.00000  Uiso   1.00
H201   H     0.06460   0.16462   0.15590   0.00000  Uiso   1.00
H202   H     0.05011   0.07527   0.10146   0.00000  Uiso   1.00
H203   H     0.33825   0.25920   0.43580   0.00000  Uiso   1.00
H204   H     0.28396   0.31800   0.48478   0.00000  Uiso   1.00
H205   H     0.24112   0.24520   0.43143   0.00000  Uiso   1.00
H206   H     0.34682   1.10515   0.49185   0.00000  Uiso   1.00
H207   H     0.24781   1.04965   0.48123   0.00000  Uiso   1.00
H208   H     0.28399   1.03473   0.56506   0.00000  Uiso   1.00
H209   H    -0.28431  -0.00970   0.56992   0.00000  Uiso   1.00
H210   H    -0.22489   0.03268   0.63052   0.00000  Uiso   1.00
H211   H    -0.20712  -0.05614   0.59913   0.00000  Uiso   1.00
H212   H    -0.04024   0.06559   0.54327   0.00000  Uiso   1.00
H213   H    -0.06780   0.15205   0.58073   0.00000  Uiso   1.00
H214   H    -0.01907   0.17827   0.49516   0.00000  Uiso   1.00
H215   H     0.77763   0.19061   0.52973   0.00000  Uiso   1.00
H216   H     0.75648   0.13429   0.45933   0.00000  Uiso   1.00
H217   H     0.84944   0.21354   0.44596   0.00000  Uiso   1.00
H218   H    -0.11781   0.01887   0.72250   0.00000  Uiso   1.00
H219   H    -0.08028   0.08896   0.78230   0.00000  Uiso   1.00
H220   H    -0.15793   0.10424   0.73854   0.00000  Uiso   1.00
H221   H    -0.30681   0.04928   0.81428   0.00000  Uiso   1.00
H222   H    -0.34880  -0.06494   0.85600   0.00000  Uiso   1.00
H223   H    -0.30225  -0.02415   0.75936   0.00000  Uiso   1.00
H224   H     0.76278  -0.17027   0.88181   0.00000  Uiso   1.00
H225   H     0.86127  -0.12599   0.84445   0.00000  Uiso   1.00
H226   H     0.78634  -0.15298   0.79068   0.00000  Uiso   1.00
H227   H     0.01305   0.17908  -0.07206   0.00000  Uiso   1.00
H228   H     0.05060   0.28555  -0.11575   0.00000  Uiso   1.00
H229   H    -0.05497   0.23270  -0.09020   0.00000  Uiso   1.00
H230   H    -0.11403   0.32260   0.04645   0.00000  Uiso   1.00
H231   H    -0.04812   0.38832  -0.03011   0.00000  Uiso   1.00
H232   H    -0.01880   0.40174   0.05578   0.00000  Uiso   1.00
H233   H     0.11854   0.24387   0.02166   0.00000  Uiso   1.00
H234   H     0.09446   0.30842   0.08621   0.00000  Uiso   1.00
H235   H     0.12789   0.36634   0.00026   0.00000  Uiso   1.00
H236   H     0.07866   0.38417   0.64577   0.00000  Uiso   1.00
H237   H     0.01712   0.29512   0.61226   0.00000  Uiso   1.00
H238   H    -0.01713   0.38027   0.64513   0.00000  Uiso   1.00
H239   H     1.08575   0.33120   0.45904   0.00000  Uiso   1.00
H240   H     1.16981   0.38015   0.49490   0.00000  Uiso   1.00
H241   H     1.14454   0.43672   0.42100   0.00000  Uiso   1.00
H242   H     0.24863   0.76663   0.27946   0.00000  Uiso   1.00
H243   H     0.32091   0.77335   0.33070   0.00000  Uiso   1.00
H244   H     0.22663   0.79270   0.36338   0.00000  Uiso   1.00
H245   H     0.11727   0.63613   0.29854   0.00000  Uiso   1.00
H246   H     0.07963   0.61609   0.39295   0.00000  Uiso   1.00
H247   H     0.10472   0.52965   0.34424   0.00000  Uiso   1.00
H248   H     0.28795   0.53251   0.36248   0.00000  Uiso   1.00
H249   H     0.32961   0.62033   0.29294   0.00000  Uiso   1.00
H250   H     0.24464   0.54110   0.28392   0.00000  Uiso   1.00
H251   H    -0.16660   0.29186   0.92409   0.00000  Uiso   1.00
H252   H    -0.17516   0.22933   0.85110   0.00000  Uiso   1.00
H253   H    -0.25171   0.26890   0.87737   0.00000  Uiso   1.00
H254   H     0.00167   0.44123   0.73656   0.00000  Uiso   1.00
H255   H    -0.03244   0.32344   0.76957   0.00000  Uiso   1.00
H256   H    -0.00513   0.39014   0.82863   0.00000  Uiso   1.00
H257   H     0.00479   0.71727   0.34666   0.00000  Uiso   1.00
H258   H     0.03117   0.79700   0.40614   0.00000  Uiso   1.00
H259   H     0.08803   0.81027   0.32717   0.00000  Uiso   1.00
H260   H     0.06646   1.00409   0.30896   0.00000  Uiso   1.00
H261   H    -0.01528   0.95617   0.38509   0.00000  Uiso   1.00
H262   H    -0.03188   1.00353   0.30807   0.00000  Uiso   1.00
H263   H     1.04558   0.81582   0.19174   0.00000  Uiso   1.00
H264   H     1.07226   0.93206   0.18812   0.00000  Uiso   1.00
H265   H     0.97781   0.86967   0.17533   0.00000  Uiso   1.00
H266   H    -0.09248   0.54185   0.09422   0.00000  Uiso   1.00
H267   H    -0.01180   0.54400   0.03095   0.00000  Uiso   1.00
H268   H    -0.03695   0.63651   0.04247   0.00000  Uiso   1.00
H269   H     0.02258   0.45127   0.16833   0.00000  Uiso   1.00
H270   H     0.10266   0.52264   0.19329   0.00000  Uiso   1.00
H271   H     0.10603   0.50559   0.10264   0.00000  Uiso   1.00
H272   H     0.01112   0.62334   1.25932   0.00000  Uiso   1.00
H273   H    -0.08325   0.55472   1.24134   0.00000  Uiso   1.00
H274   H    -0.04641   0.66971   1.21559   0.00000  Uiso   1.00
H275   H     0.09179   0.71814   0.57265   0.00000  Uiso   1.00
H276   H     0.06033   0.68388   0.49112   0.00000  Uiso   1.00
H277   H     0.15782   0.76214   0.48240   0.00000  Uiso   1.00
H278   H    -0.05219   0.89243   0.73695   0.00000  Uiso   1.00
H279   H    -0.01158   0.96945   0.66294   0.00000  Uiso   1.00
H280   H     0.04317   0.95930   0.72424   0.00000  Uiso   1.00
H281   H     0.13095   1.21594   0.56350   0.00000  Uiso   1.00
H282   H     0.13440   1.12850   0.62741   0.00000  Uiso   1.00
H283   H     0.11117   1.10537   0.54759   0.00000  Uiso   1.00
H284   H     0.09985   0.67134   0.85516   0.00000  Uiso   1.00
H285   H     0.00951   0.62503   0.81543   0.00000  Uiso   1.00
H286   H     0.03809   0.73964   0.84209   0.00000  Uiso   1.00
H287   H     0.15247   0.88050   0.78719   0.00000  Uiso   1.00
H288   H     0.22175   0.87948   0.71378   0.00000  Uiso   1.00
H289   H     0.21397   0.82269   0.79968   0.00000  Uiso   1.00
H290   H     0.43549   1.01373  -0.08681   0.00000  Uiso   1.00
H291   H     0.40065   0.94059  -0.00076   0.00000  Uiso   1.00
H292   H     0.49493   0.95479  -0.05130   0.00000  Uiso   1.00
H293   H     0.46619   0.18917   0.20563   0.00000  Uiso   1.00
H294   H     0.46316   0.27514   0.26429   0.00000  Uiso   1.00
H295   H     0.48142   0.17513   0.30272   0.00000  Uiso   1.00
H296   H     0.66302   0.18501   0.14439   0.00000  Uiso   1.00
H297   H     0.59249   0.12736   0.21609   0.00000  Uiso   1.00
H298   H     0.69230   0.19322   0.23038   0.00000  Uiso   1.00
H299   H     0.60826   0.41241   0.16584   0.00000  Uiso   1.00
H300   H     0.58863   0.33791   0.10576   0.00000  Uiso   1.00
H301   H     0.68858   0.37208   0.12353   0.00000  Uiso   1.00
H302   H     0.28024   0.15933  -0.05047   0.00000  Uiso   1.00
H303   H     0.27382   0.07778   0.01862   0.00000  Uiso   1.00
H304   H     0.32312   0.06546  -0.05865   0.00000  Uiso   1.00
H305   H     0.40900   0.26451   1.11189   0.00000  Uiso   1.00
H306   H     0.31075   0.19581   1.10690   0.00000  Uiso   1.00
H307   H     0.35001   0.29371   1.05186   0.00000  Uiso   1.00
H308   H     0.26430   0.08491   0.78601   0.00000  Uiso   1.00
H309   H     0.28581   0.04707   0.70736   0.00000  Uiso   1.00
H310   H     0.19777   0.06573   0.72010   0.00000  Uiso   1.00
H311   H     0.60714   0.16297   0.45717   0.00000  Uiso   1.00
H312   H     0.65309   0.13070   0.37710   0.00000  Uiso   1.00
H313   H     0.55866   0.14766   0.38615   0.00000  Uiso   1.00
H314   H     0.39993   0.44389   0.86341   0.00000  Uiso   1.00
H315   H     0.35541   0.38281   0.94790   0.00000  Uiso   1.00
H316   H     0.35571   0.33256   0.86387   0.00000  Uiso   1.00
H317   H     0.58624   0.41047   0.96062   0.00000  Uiso   1.00
H318   H     0.50871   0.41075   1.02526   0.00000  Uiso   1.00
H319   H     0.54278   0.49259   0.93986   0.00000  Uiso   1.00
H320   H     0.38681   0.09569   0.81882   0.00000  Uiso   1.00
H321   H     0.39332   0.19988   0.83650   0.00000  Uiso   1.00
H322   H     0.47503   0.15477   0.83803   0.00000  Uiso   1.00
H323   H     0.24513   0.23488   0.78901   0.00000  Uiso   1.00
H324   H     0.21198   0.26252   0.70894   0.00000  Uiso   1.00
H325   H     0.30123   0.33182   0.72367   0.00000  Uiso   1.00
H326   H     0.52967   0.25633   0.55585   0.00000  Uiso   1.00
H327   H     0.46348   0.22787   0.49956   0.00000  Uiso   1.00
H328   H     0.45668   0.31230   0.55266   0.00000  Uiso   1.00
H329   H     0.51348   0.35984   0.33846   0.00000  Uiso   1.00
H330   H     0.52897   0.46104   0.36146   0.00000  Uiso   1.00
H331   H     0.44493   0.37721   0.39829   0.00000  Uiso   1.00
H332   H     0.36837   0.47778   0.45914   0.00000  Uiso   1.00
H333   H     0.39588   0.40342   0.51165   0.00000  Uiso   1.00
H334   H     0.46621   0.50391   0.47639   0.00000  Uiso   1.00
H335   H     0.24274   0.49032   0.56562   0.00000  Uiso   1.00
H336   H     0.25795   0.48287   0.65939   0.00000  Uiso   1.00
H337   H     0.26362   0.39563   0.60617   0.00000  Uiso   1.00
H338   H     0.34564   0.58470   0.94001   0.00000  Uiso   1.00
H339   H     0.40670   0.61434   1.00524   0.00000  Uiso   1.00
H340   H     0.42469   0.54241   0.95685   0.00000  Uiso   1.00
H341   H     0.59788   0.63980   0.92169   0.00000  Uiso   1.00
H342   H     0.57323   0.70497   0.98011   0.00000  Uiso   1.00
H343   H     0.62690   0.75179   0.89533   0.00000  Uiso   1.00
H344   H     0.45536   0.80119   0.93923   0.00000  Uiso   1.00
H345   H     0.42106   0.79130   0.85910   0.00000  Uiso   1.00
H346   H     0.52262   0.82912   0.85270   0.00000  Uiso   1.00
H347   H     0.72902   0.77162   0.03794   0.00000  Uiso   1.00
H348   H     0.73603   0.68207  -0.00580   0.00000  Uiso   1.00
H349   H     0.82197   0.74804   0.03401   0.00000  Uiso   1.00
H350   H     0.58451   0.54595   0.11685   0.00000  Uiso   1.00
H351   H     0.59209   0.65016   0.09033   0.00000  Uiso   1.00
H352   H     0.57872   0.61333   0.18187   0.00000  Uiso   1.00
H353   H     0.76537   0.54631   0.10284   0.00000  Uiso   1.00
H354   H     0.73183   0.52452   0.19171   0.00000  Uiso   1.00
H355   H     0.81936   0.61168   0.15971   0.00000  Uiso   1.00
H356   H     0.42897   0.80059   0.14350   0.00000  Uiso   1.00
H357   H     0.47385   0.85207   0.05267   0.00000  Uiso   1.00
H358   H     0.38590   0.86498   0.10911   0.00000  Uiso   1.00
H359   H     0.40610   0.91970   0.24756   0.00000  Uiso   1.00
H360   H     0.42378   1.03015   0.21105   0.00000  Uiso   1.00
H361   H     0.49034   0.99623   0.25987   0.00000  Uiso   1.00
H362   H     0.46209   0.65599   0.50936   0.00000  Uiso   1.00
H363   H     0.40349   0.67140   0.58877   0.00000  Uiso   1.00
H364   H     0.35844   0.63527   0.50937   0.00000  Uiso   1.00
H365   H     0.44728   0.77503   0.45991   0.00000  Uiso   1.00
H366   H     0.40376   0.71934   0.38947   0.00000  Uiso   1.00
H367   H     0.43987   0.83928   0.38108   0.00000  Uiso   1.00
H368   H     0.48264   0.62680   0.33963   0.00000  Uiso   1.00
H369   H     0.55625   0.64206   0.39571   0.00000  Uiso   1.00
H370   H     0.58747   0.66276   0.30232   0.00000  Uiso   1.00
H371   H     0.32111   0.81611   0.67069   0.00000  Uiso   1.00
H372   H     0.28946   0.83686   0.59355   0.00000  Uiso   1.00
H373   H     0.36408   0.79455   0.58395   0.00000  Uiso   1.00
H374   H     0.64280   1.00900   0.28938   0.00000  Uiso   1.00
H375   H     0.70118   1.05309   0.20019   0.00000  Uiso   1.00
H376   H     0.72477   0.97735   0.26056   0.00000  Uiso   1.00
H377   H     0.50568   0.76435   0.63907   0.00000  Uiso   1.00
H378   H     0.58234   0.80385   0.69541   0.00000  Uiso   1.00
H379   H     0.47543   0.80398   0.72111   0.00000  Uiso   1.00
H380   H     0.18111   0.78424   0.95411   0.00000  Uiso   1.00
H381   H     0.16286   0.67281   0.95615   0.00000  Uiso   1.00
H382   H     0.26226   0.74859   0.96284   0.00000  Uiso   1.00
H383   H     0.30855   0.70269   1.08959   0.00000  Uiso   1.00
H384   H     0.23134   0.61376   1.10281   0.00000  Uiso   1.00
H385   H     0.23716   0.68166   1.17383   0.00000  Uiso   1.00
H386   H     0.21449   0.83192   1.15158   0.00000  Uiso   1.00
H387   H     0.16337   0.86300   1.08456   0.00000  Uiso   1.00
H388   H     0.26826   0.87796   1.06321   0.00000  Uiso   1.00
H389   H     0.26742   0.49259   0.86639   0.00000  Uiso   1.00
H390   H     0.25163   0.44102   0.78589   0.00000  Uiso   1.00
H391   H     0.18490   0.49277   0.82845   0.00000  Uiso   1.00
H392   H     0.59693   0.21213  -0.02077   0.00000  Uiso   1.00
H393   H     0.55698   0.17245  -0.08911   0.00000  Uiso   1.00
H394   H     0.63125   0.13544  -0.07120   0.00000  Uiso   1.00
H395   H     0.81193   0.42223   0.21691   0.00000  Uiso   1.00
H396   H     0.78989   0.32242   0.18281   0.00000  Uiso   1.00
H397   H     0.88885   0.38566   0.18243   0.00000  Uiso   1.00
H398   H     0.91666   0.44816   0.32886   0.00000  Uiso   1.00
H399   H     0.96469   0.36953   0.31177   0.00000  Uiso   1.00
H400   H     0.89719   0.35110   0.39122   0.00000  Uiso   1.00
H401   H     0.82483   0.12582   0.01106   0.00000  Uiso   1.00
H402   H     0.73870   0.08224   0.07575   0.00000  Uiso   1.00
H403   H     0.73644   0.12623  -0.01635   0.00000  Uiso   1.00
H404   H     0.62124  -0.05577   0.99916   0.00000  Uiso   1.00
H405   H     0.65137  -0.10756   1.06305   0.00000  Uiso   1.00
H406   H     0.64883  -0.14390   0.97569   0.00000  Uiso   1.00
H407   H     0.40103   0.09293   0.60277   0.00000  Uiso   1.00
H408   H     0.37937  -0.02123   0.61739   0.00000  Uiso   1.00
H409   H     0.46555   0.05462   0.55878   0.00000  Uiso   1.00
H410   H     0.44228  -0.09117   0.75047   0.00000  Uiso   1.00
H411   H     0.38622  -0.02350   0.77606   0.00000  Uiso   1.00
H412   H     0.48665  -0.00747   0.79322   0.00000  Uiso   1.00
H413   H     0.57412  -0.03465   0.62284   0.00000  Uiso   1.00
H414   H     0.60759   0.01286   0.69482   0.00000  Uiso   1.00
H415   H     0.62640   0.07378   0.60537   0.00000  Uiso   1.00
H416   H     1.01956   0.15476   0.28108   0.00000  Uiso   1.00
H417   H     0.97579   0.20234   0.35300   0.00000  Uiso   1.00
H418   H     1.01004   0.26147   0.27113   0.00000  Uiso   1.00
H419   H     0.71363   0.49852  -0.00579   0.00000  Uiso   1.00
H420   H     0.81497   0.48662  -0.01250   0.00000  Uiso   1.00
H421   H     0.73078   0.39386  -0.01056   0.00000  Uiso   1.00
H422   H     0.87321   0.65551  -0.18655   0.00000  Uiso   1.00
H423   H     0.89947   0.62818  -0.10244   0.00000  Uiso   1.00
H424   H     0.80858   0.65233  -0.11137   0.00000  Uiso   1.00
H425   H     0.64566   0.18948   0.72947   0.00000  Uiso   1.00
H426   H     0.64389   0.26553   0.78946   0.00000  Uiso   1.00
H427   H     0.69975   0.19199   0.80016   0.00000  Uiso   1.00
H428   H     0.80081   0.17742   0.65724   0.00000  Uiso   1.00
H429   H     0.87900   0.25162   0.68324   0.00000  Uiso   1.00
H430   H     0.85554   0.27874   0.59924   0.00000  Uiso   1.00
H431   H     0.71372   0.66646   0.78732   0.00000  Uiso   1.00
H432   H     0.60675   0.59441   0.80299   0.00000  Uiso   1.00
H433   H     0.66204   0.63479   0.71540   0.00000  Uiso   1.00
H434   H     0.97701   0.47020   0.45205   0.00000  Uiso   1.00
H435   H     0.92760   0.43514   0.53536   0.00000  Uiso   1.00
H436   H     0.95675   0.36008   0.48032   0.00000  Uiso   1.00
H437   H     0.77171   0.41677   0.45102   0.00000  Uiso   1.00
H438   H     0.71023   0.31448   0.49999   0.00000  Uiso   1.00
H439   H     0.80699   0.33194   0.49936   0.00000  Uiso   1.00
H440   H     1.16162   0.94235   0.96707   0.00000  Uiso   1.00
H441   H     1.13285   0.99052   1.03849   0.00000  Uiso   1.00
H442   H     1.14055   1.04189   0.94718   0.00000  Uiso   1.00
H443   H     1.04087   0.79397  -0.01458   0.00000  Uiso   1.00
H444   H     0.95365   0.79521  -0.05186   0.00000  Uiso   1.00
H445   H     0.95111   0.77424   0.04379   0.00000  Uiso   1.00
H446   H     0.94170   0.99243   0.90848   0.00000  Uiso   1.00
H447   H     0.99296   0.92150   0.86450   0.00000  Uiso   1.00
H448   H     1.04933   1.03177   0.87409   0.00000  Uiso   1.00
H449   H     0.75331   0.52928   0.33339   0.00000  Uiso   1.00
H450   H     0.74485   0.63293   0.29686   0.00000  Uiso   1.00
H451   H     0.66787   0.54903   0.34612   0.00000  Uiso   1.00
H452   H     0.86921   0.66898   0.47016   0.00000  Uiso   1.00
H453   H     0.88343   0.64618   0.38022   0.00000  Uiso   1.00
H454   H     0.83415   0.56522   0.44618   0.00000  Uiso   1.00
H455   H     1.09300   0.94483   0.55573   0.00000  Uiso   1.00
H456   H     1.15218   0.87171   0.56844   0.00000  Uiso   1.00
H457   H     1.16101   0.96026   0.61576   0.00000  Uiso   1.00
H458   H     0.52303   0.95990   0.42788   0.00000  Uiso   1.00
H459   H     0.58867   1.00443   0.48582   0.00000  Uiso   1.00
H460   H     0.51486   0.90096   0.51355   0.00000  Uiso   1.00
H461   H     0.22120   0.68023   0.83270   0.00000  Uiso   1.00
H462   H     0.32017   0.74928   0.80290   0.00000  Uiso   1.00
H463   H     0.29585   0.67013   0.87808   0.00000  Uiso   1.00
H464   H     0.92677   0.49800   0.67843   0.00000  Uiso   1.00
H465   H     0.96362   0.62066   0.67699   0.00000  Uiso   1.00
H466   H     0.98189   0.57253   0.59404   0.00000  Uiso   1.00
H467   H     0.64497   0.85161   0.56665   0.00000  Uiso   1.00
H468   H     0.69221   0.79885   0.50609   0.00000  Uiso   1.00
H469   H     0.59460   0.76634   0.52587   0.00000  Uiso   1.00
H470   H     0.89699   0.80742   0.46817   0.00000  Uiso   1.00
H471   H     0.91191   0.90170   0.50561   0.00000  Uiso   1.00
H472   H     0.81564   0.82991   0.50965   0.00000  Uiso   1.00
H473   H     0.76045   0.78279   0.66446   0.00000  Uiso   1.00
H474   H     0.85086   0.86826   0.65868   0.00000  Uiso   1.00
H475   H     0.82821   0.76529   0.71299   0.00000  Uiso   1.00
loop_
_geom_bond_atom_site_label_1
_geom_bond_atom_site_label_2
_geom_bond_distance
_geom_bond_site_symmetry_2
_ccdc_geom_bond_type
Si1    C52     1.854   .     S
Si1    O61     1.579   .     S
Si1    O140    1.571   1_455 S
Si1    O154    1.598   1_455 S
Si2    C53     1.876   .     S
Si2    O93     1.599   .     S
Si2    C54     1.819   1_545 S
Si2    C82     1.881   1_545 S
Si3    C55     1.880   .     S
Si3    C56     1.876   .     S
Si3    C57     1.889   1_455 S
Si3    O149    1.611   1_455 S
Si4    C58     1.851   .     S
Si4    C59     1.873   .     S
Si4    C60     1.849   1_455 S
Si4    O145    1.585   1_455 S
Si5    O61     1.596   .     S
Si5    C62     1.910   .     S
Si5    C63     1.849   .     S
Si5    C64     1.849   .     S
Si6    C65     1.833   .     S
Si6    O78     1.593   .     S
Si6    C66     1.870   1_455 S
Si6    C169    1.869   1_455 S
Si7    C67     1.912   .     S
Si7    C68     1.793   .     S
Si7    C69     1.846   .     S
Si7    O79     1.574   .     S
Si8    C70     1.807   .     S
Si8    C71     1.861   .     S
Si8    O158    1.634   1_455 S
Si8    O165    1.572   1_455 S
Si9    C72     1.857   .     S
Si9    C73     1.851   .     S
Si9    C74     1.912   1_455 S
Si9    O188    1.606   1_455 S
Si10   C75     1.856   .     S
Si10   C76     1.828   .     S
Si10   C77     1.859   1_554 S
Si10   O136    1.542   1_554 S
Si11   O78     1.591   .     S
Si11   O79     1.600   .     S
Si11   C80     1.861   .     S
Si11   O124    1.615   .     S
Si12   C81     1.815   .     S
Si12   O83     1.594   .     S
Si12   C183    1.794   1_455 S
Si12   O195    1.577   1_455 S
Si13   O83     1.567   .     S
Si13   C84     1.812   .     S
Si13   C85     1.816   .     S
Si13   O126    1.575   .     S
Si14   O90     1.579   .     S
Si14   C141    1.886   .     S
Si14   C86     1.857   1_545 S
Si14   O119    1.611   1_545 S
Si15   C87     1.851   .     S
Si15   C88     1.876   .     S
Si15   C89     1.866   .     S
Si15   O95     1.605   .     S
Si16   O90     1.622   .     S
Si16   C91     1.874   .     S
Si16   C92     1.884   1_554 S
Si16   O98     1.597   1_554 S
Si17   O93     1.585   .     S
Si17   C94     1.905   .     S
Si17   O100    1.630   .     S
Si17   C102    1.879   .     S
Si18   O95     1.631   .     S
Si18   C96     1.880   .     S
Si18   O104    1.583   .     S
Si18   O144    1.579   .     S
Si19   C97     1.849   .     S
Si19   O98     1.573   .     S
Si19   C99     1.874   .     S
Si19   O108    1.549   .     S
Si20   O100    1.565   .     S
Si20   C101    1.851   .     S
Si20   O109    1.598   .     S
Si20   O153    1.573   .     S
Si21   C103    1.904   .     S
Si21   O104    1.607   .     S
Si21   C105    1.857   .     S
Si21   O161    1.646   .     S
Si22   C106    1.906   .     S
Si22   C107    1.811   .     S
Si22   O113    1.558   .     S
Si22   C121    1.907   .     S
Si23   O108    1.613   .     S
Si23   O109    1.581   .     S
Si23   O114    1.607   .     S
Si23   O166    1.605   .     S
Si24   C110    1.897   .     S
Si24   C111    1.881   .     S
Si24   C112    1.826   .     S
Si24   O130    1.542   .     S
Si25   O113    1.583   .     S
Si25   O114    1.601   .     S
Si25   O131    1.573   .     S
Si25   O162    1.594   .     S
Si26   C115    1.883   .     S
Si26   C116    1.794   .     S
Si26   C117    1.890   .     S
Si26   O173    1.582   .     S
Si27   C118    1.881   .     S
Si27   O119    1.570   .     S
Si27   C120    1.904   .     S
Si27   O127    1.626   .     S
Si28   C122    1.875   .     S
Si28   C123    1.862   .     S
Si28   O128    1.548   .     S
Si28   O184    1.598   .     S
Si29   O124    1.600   .     S
Si29   C125    1.926   .     S
Si29   O126    1.596   .     S
Si29   O137    1.564   .     S
Si30   O127    1.585   .     S
Si30   O128    1.613   .     S
Si30   C129    1.801   .     S
Si30   O175    1.579   .     S
Si31   O130    1.645   .     S
Si31   O131    1.608   .     S
Si31   C132    1.839   .     S
Si31   O138    1.616   .     S
Si32   C133    1.873   .     S
Si32   C134    1.929   .     S
Si32   C135    1.903   .     S
Si32   O136    1.597   .     S
Si33   O137    1.570   .     S
Si33   O138    1.564   .     S
Si33   C139    1.890   .     S
Si33   C187    1.832   .     S
Si34   O140    1.577   .     S
Si34   O146    1.625   .     S
Si34   O174    1.595   1_545 S
Si34   O178    1.620   1_545 S
Si35   C142    1.888   .     S
Si35   C143    1.843   .     S
Si35   O144    1.648   .     S
Si35   O155    1.601   .     S
Si36   O146    1.576   .     S
Si36   C147    1.853   .     S
Si36   O145    1.557   1_554 S
Si36   C148    1.864   1_554 S
Si37   O149    1.588   .     S
Si37   O156    1.561   .     S
Si37   O185    1.626   1_545 S
Si37   O191    1.578   1_545 S
Si38   C150    1.931   .     S
Si38   C151    1.864   .     S
Si38   C152    1.876   .     S
Si38   O153    1.588   .     S
Si39   O154    1.599   .     S
Si39   O155    1.628   .     S
Si39   O156    1.582   .     S
Si39   C157    1.855   .     S
Si40   C159    1.848   .     S
Si40   C160    1.891   .     S
Si40   O158    1.571   1_554 S
Si40   O167    1.609   1_554 S
Si41   O161    1.630   .     S
Si41   O162    1.578   .     S
Si41   O171    1.601   .     S
Si41   O180    1.571   .     S
Si42   C163    1.874   .     S
Si42   C164    1.929   .     S
Si42   O165    1.660   .     S
Si42   O172    1.555   .     S
Si43   O166    1.610   .     S
Si43   O167    1.592   .     S
Si43   C168    1.864   .     S
Si43   O192    1.625   .     S
Si44   C170    1.926   .     S
Si44   O171    1.561   .     S
Si44   O172    1.584   .     S
Si44   O193    1.580   .     S
Si45   O173    1.588   .     S
Si45   O174    1.579   .     S
Si45   O175    1.593   .     S
Si45   O189    1.602   .     S
Si46   C177    1.870   .     S
Si46   O178    1.603   .     S
Si46   C176    1.894   1_554 S
Si46   C179    1.908   1_554 S
Si47   O180    1.610   .     S
Si47   C181    1.896   .     S
Si47   C182    1.812   .     S
Si47   O190    1.588   .     S
Si48   O184    1.592   .     S
Si48   O185    1.624   .     S
Si48   C186    1.841   .     S
Si48   C196    1.901   .     S
Si49   O188    1.583   .     S
Si49   O189    1.626   .     S
Si49   O190    1.584   .     S
Si49   O191    1.560   .     S
Si50   O192    1.573   .     S
Si50   O193    1.585   .     S
Si50   C194    1.886   .     S
Si50   O198    1.611   .     S
Si51   O195    1.603   .     S
Si51   C197    1.896   .     S
Si51   O198    1.600   .     S
Si51   C199    1.803   .     S
C52    H200    1.073   .     S
C52    H201    1.119   .     S
C52    H202    1.085   .     S
C53    H203    1.107   .     S
C53    H204    1.128   .     S
C53    H205    1.044   .     S
C54    H206    1.121   .     S
C54    H207    1.124   .     S
C54    H208    1.114   .     S
C54    Si2     1.819   1_565 S
C55    H209    1.107   .     S
C55    H210    1.052   .     S
C55    H211    1.145   .     S
C56    H212    1.078   .     S
C56    H213    1.104   .     S
C56    H214    1.129   .     S
C57    H215    1.089   .     S
C57    H216    1.097   .     S
C57    H217    1.085   .     S
C57    Si3     1.889   1_655 S
C58    H218    1.098   .     S
C58    H219    1.098   .     S
C58    H220    1.109   .     S
C59    H221    1.140   .     S
C59    H222    1.134   .     S
C59    H223    1.077   .     S
C60    H224    1.071   .     S
C60    H225    1.104   .     S
C60    H226    1.083   .     S
C60    Si4     1.849   1_655 S
C62    H227    1.123   .     S
C62    H228    1.112   .     S
C62    H229    1.090   .     S
C63    H230    1.123   .     S
C63    H231    1.154   .     S
C63    H232    1.100   .     S
C64    H233    1.124   .     S
C64    H234    1.099   .     S
C64    H235    1.119   .     S
C65    H236    1.119   .     S
C65    H237    1.095   .     S
C65    H238    1.066   .     S
C66    H239    1.113   .     S
C66    H240    1.078   .     S
C66    H241    1.072   .     S
C66    Si6     1.870   1_655 S
C67    H242    1.079   .     S
C67    H243    1.110   .     S
C67    H244    1.121   .     S
C68    H245    1.127   .     S
C68    H246    1.152   .     S
C68    H247    1.098   .     S
C69    H248    1.056   .     S
C69    H249    1.092   .     S
C69    H250    1.130   .     S
C70    H251    1.110   .     S
C70    H252    1.120   .     S
C70    H253    1.131   .     S
C71    H254    1.157   .     S
C71    H255    1.110   .     S
C71    H256    1.090   .     S
C72    H257    1.105   .     S
C72    H258    1.131   .     S
C72    H259    1.078   .     S
C73    H260    1.129   .     S
C73    H261    1.110   .     S
C73    H262    1.122   .     S
C74    H263    1.089   .     S
C74    H264    1.113   .     S
C74    H265    1.108   .     S
C74    Si9     1.912   1_655 S
C75    H266    1.107   .     S
C75    H267    1.063   .     S
C75    H268    1.067   .     S
C76    H269    1.066   .     S
C76    H270    1.113   .     S
C76    H271    1.144   .     S
C77    H272    1.101   .     S
C77    H273    1.115   .     S
C77    H274    1.062   .     S
C77    Si10    1.859   1_556 S
C80    H275    1.135   .     S
C80    H276    1.167   .     S
C80    H277    1.150   .     S
C81    H278    1.095   .     S
C81    H279    1.066   .     S
C81    H280    1.027   .     S
C82    H281    1.154   .     S
C82    H282    1.061   .     S
C82    H283    1.104   .     S
C82    Si2     1.881   1_565 S
C84    H284    1.092   .     S
C84    H285    1.178   .     S
C84    H286    1.165   .     S
C85    H287    1.101   .     S
C85    H288    1.091   .     S
C85    H289    1.098   .     S
C86    H290    1.102   .     S
C86    H291    1.141   .     S
C86    H292    1.089   .     S
C86    Si14    1.857   1_565 S
C87    H293    1.161   .     S
C87    H294    1.125   .     S
C87    H295    1.205   .     S
C88    H296    1.091   .     S
C88    H297    1.102   .     S
C88    H298    1.152   .     S
C89    H299    1.125   .     S
C89    H300    1.103   .     S
C89    H301    1.128   .     S
C91    H302    1.142   .     S
C91    H303    1.083   .     S
C91    H304    1.106   .     S
C92    H305    1.162   .     S
C92    H306    1.085   .     S
C92    H307    1.095   .     S
C92    Si16    1.884   1_556 S
C94    H308    1.069   .     S
C94    H309    1.049   .     S
C94    H310    1.136   .     S
C96    H311    1.189   .     S
C96    H312    1.099   .     S
C96    H313    1.062   .     S
C97    H314    1.079   .     S
C97    H315    1.107   .     S
C97    H316    1.157   .     S
O98    Si16    1.597   1_556 S
C99    H317    1.080   .     S
C99    H318    1.180   .     S
C99    H319    1.150   .     S
C101   H320    1.073   .     S
C101   H321    1.074   .     S
C101   H322    1.088   .     S
C102   H323    1.140   .     S
C102   H324    1.064   .     S
C102   H325    1.126   .     S
C103   H326    1.088   .     S
C103   H327    1.092   .     S
C103   H328    1.137   .     S
C105   H329    1.047   .     S
C105   H330    1.052   .     S
C105   H331    1.103   .     S
C106   H332    1.086   .     S
C106   H333    1.052   .     S
C106   H334    1.107   .     S
C107   H335    1.098   .     S
C107   H336    1.132   .     S
C107   H337    1.115   .     S
C110   H338    1.098   .     S
C110   H339    1.117   .     S
C110   H340    1.062   .     S
C111   H341    1.090   .     S
C111   H342    1.108   .     S
C111   H343    1.099   .     S
C112   H344    1.131   .     S
C112   H345    1.105   .     S
C112   H346    1.104   .     S
C115   H347    1.091   .     S
C115   H348    1.190   .     S
C115   H349    1.117   .     S
C116   H350    1.102   .     S
C116   H351    1.058   .     S
C116   H352    1.092   .     S
C117   H353    1.093   .     S
C117   H354    1.095   .     S
C117   H355    1.082   .     S
C118   H356    1.094   .     S
C118   H357    1.181   .     S
C118   H358    1.049   .     S
O119   Si14    1.611   1_565 S
C120   H359    1.100   .     S
C120   H360    1.104   .     S
C120   H361    1.142   .     S
C121   H362    1.134   .     S
C121   H363    1.129   .     S
C121   H364    1.161   .     S
C122   H365    1.135   .     S
C122   H366    1.137   .     S
C122   H367    1.096   .     S
C123   H368    1.161   .     S
C123   H369    1.109   .     S
C123   H370    1.135   .     S
C125   H371    1.103   .     S
C125   H372    1.033   .     S
C125   H373    1.127   .     S
C129   H374    1.118   .     S
C129   H375    1.103   .     S
C129   H376    1.112   .     S
C132   H377    1.136   .     S
C132   H378    1.173   .     S
C132   H379    1.129   .     S
C133   H380    1.050   .     S
C133   H381    1.163   .     S
C133   H382    1.142   .     S
C134   H383    1.125   .     S
C134   H384    1.095   .     S
C134   H385    1.095   .     S
C135   H386    1.092   .     S
C135   H387    1.094   .     S
C135   H388    1.124   .     S
O136   Si10    1.542   1_556 S
C139   H389    1.180   .     S
C139   H390    1.162   .     S
C139   H391    1.118   .     S
O140   Si1     1.571   1_655 S
C141   H392    1.082   .     S
C141   H393    1.065   .     S
C141   H394    1.116   .     S
C142   H395    1.094   .     S
C142   H396    1.069   .     S
C142   H397    1.092   .     S
C143   H398    1.111   .     S
C143   H399    1.101   .     S
C143   H400    1.109   .     S
O145   Si4     1.585   1_655 S
O145   Si36    1.557   1_556 S
C147   H401    1.141   .     S
C147   H402    1.140   .     S
C147   H403    1.081   .     S
C148   H404    1.138   .     S
C148   H405    1.108   .     S
C148   H406    1.101   .     S
C148   Si36    1.864   1_556 S
O149   Si3     1.611   1_655 S
C150   H407    1.137   .     S
C150   H408    1.091   .     S
C150   H409    1.051   .     S
C151   H410    1.119   .     S
C151   H411    1.140   .     S
C151   H412    1.107   .     S
C152   H413    1.101   .     S
C152   H414    1.108   .     S
C152   H415    1.068   .     S
O154   Si1     1.598   1_655 S
C157   H416    1.117   .     S
C157   H417    1.102   .     S
C157   H418    1.100   .     S
O158   Si8     1.634   1_655 S
O158   Si40    1.571   1_556 S
C159   H419    1.124   .     S
C159   H420    1.133   .     S
C159   H421    1.116   .     S
C160   H422    1.142   .     S
C160   H423    1.112   .     S
C160   H424    1.109   .     S
C163   H425    1.101   .     S
C163   H426    1.138   .     S
C163   H427    1.080   .     S
C164   H428    1.105   .     S
C164   H429    1.116   .     S
C164   H430    1.129   .     S
O165   Si8     1.572   1_655 S
O167   Si40    1.609   1_556 S
C168   H431    1.148   .     S
C168   H432    1.097   .     S
C168   H433    1.106   .     S
C169   H434    1.105   .     S
C169   H435    1.076   .     S
C169   H436    1.119   .     S
C169   Si6     1.869   1_655 S
C170   H437    1.154   .     S
C170   H438    1.140   .     S
C170   H439    1.092   .     S
O174   Si34    1.595   1_565 S
C176   H440    1.138   .     S
C176   H441    1.105   .     S
C176   H442    1.157   .     S
C176   Si46    1.894   1_556 S
C177   H443    1.139   .     S
C177   H444    1.126   .     S
C177   H445    1.135   .     S
O178   Si34    1.620   1_565 S
C179   H446    1.136   .     S
C179   H447    1.131   .     S
C179   H448    1.146   .     S
C179   Si46    1.908   1_556 S
C181   H449    1.108   .     S
C181   H450    1.139   .     S
C181   H451    1.067   .     S
C182   H452    1.070   .     S
C182   H453    1.089   .     S
C182   H454    1.092   .     S
C183   H455    1.078   .     S
C183   H456    1.112   .     S
C183   H457    1.155   .     S
C183   Si12    1.794   1_655 S
O185   Si37    1.626   1_565 S
C186   H458    1.086   .     S
C186   H459    1.107   .     S
C186   H460    1.154   .     S
C187   H461    1.125   .     S
C187   H462    1.119   .     S
C187   H463    1.099   .     S
O188   Si9     1.606   1_655 S
O191   Si37    1.578   1_565 S
C194   H464    1.106   .     S
C194   H465    1.145   .     S
C194   H466    1.186   .     S
O195   Si12    1.577   1_655 S
C196   H467    1.075   .     S
C196   H468    1.084   .     S
C196   H469    1.104   .     S
C197   H470    1.063   .     S
C197   H471    1.117   .     S
C197   H472    1.102   .     S
C199   H473    1.100   .     S
C199   H474    1.093   .     S
C199   H475    1.070   .     S
