data_333-7-11-18-15-30-5
_audit_creation_date              2025-03-07
_audit_creation_method            'Materials Studio'
_symmetry_space_group_name_H-M    'P1'
_symmetry_Int_Tables_number       1
_symmetry_cell_setting            triclinic
loop_
_symmetry_equiv_pos_as_xyz
  x,y,z
_cell_length_a                    17.3660
_cell_length_b                    17.7078
_cell_length_c                    19.5475
_cell_angle_alpha                 88.8091
_cell_angle_beta                  92.4597
_cell_angle_gamma                 127.0219
loop_
_atom_site_label
_atom_site_type_symbol
_atom_site_fract_x
_atom_site_fract_y
_atom_site_fract_z
_atom_site_U_iso_or_equiv
_atom_site_adp_type
_atom_site_occupancy
Si1    Si    0.28021   0.41277   0.01285   0.00000  Uiso   1.00
Si2    Si    0.17874   0.02134   0.41543   0.00000  Uiso   1.00
Si3    Si   -0.10452   0.02485   0.88277   0.00000  Uiso   1.00
Si4    Si    0.13267   0.12763   0.68182   0.00000  Uiso   1.00
Si5    Si    0.17432   0.46311   0.09895   0.00000  Uiso   1.00
Si6    Si   -0.00156   0.54676   0.22539   0.00000  Uiso   1.00
Si7    Si    0.12829   0.39761   0.40570   0.00000  Uiso   1.00
Si8    Si   -0.01161   0.49552   0.53339   0.00000  Uiso   1.00
Si9    Si    0.14065   0.55937   0.33623   0.00000  Uiso   1.00
Si10   Si    0.17254   0.32090   0.68967   0.00000  Uiso   1.00
Si11   Si    0.02728   0.44196   0.85119   0.00000  Uiso   1.00
Si12   Si   -0.02912   0.85310   0.24397   0.00000  Uiso   1.00
Si13   Si    0.10617   0.67370   0.43418   0.00000  Uiso   1.00
Si14   Si    0.08905   0.82379   0.35816   0.00000  Uiso   1.00
Si15   Si    0.21189   0.62649   0.78913   0.00000  Uiso   1.00
Si16   Si    0.04973   0.70713   0.91284   0.00000  Uiso   1.00
Si17   Si    0.36034  -0.02343   0.14690   0.00000  Uiso   1.00
Si18   Si    0.36914   0.14908   0.12978   0.00000  Uiso   1.00
Si19   Si    0.49598  -0.01799   0.74172   0.00000  Uiso   1.00
Si20   Si    0.54855   0.17824   0.70072   0.00000  Uiso   1.00
Si21   Si    0.56501   0.27627   0.19887   0.00000  Uiso   1.00
Si22   Si    0.27268   0.55546   0.23562   0.00000  Uiso   1.00
Si23   Si    0.51435   0.40440   0.47332   0.00000  Uiso   1.00
Si24   Si    0.31036   0.40997   0.24963   0.00000  Uiso   1.00
Si25   Si    0.58158   0.31219   0.81476   0.00000  Uiso   1.00
Si26   Si    0.55384   0.46027   0.77974   0.00000  Uiso   1.00
Si27   Si    0.45284   0.71503   0.15087   0.00000  Uiso   1.00
Si28   Si    0.52063   0.71181   0.43755   0.00000  Uiso   1.00
Si29   Si    0.29253   0.84105   0.51330   0.00000  Uiso   1.00
Si30   Si    0.55903   0.86688   0.34442   0.00000  Uiso   1.00
Si31   Si    0.37991   0.82523   0.85124   0.00000  Uiso   1.00
Si32   Si    0.45668   0.86125   0.61069   0.00000  Uiso   1.00
Si33   Si    0.75521   0.02943   0.10519   0.00000  Uiso   1.00
Si34   Si    0.77614   0.07032  -0.04782   0.00000  Uiso   1.00
Si35   Si    0.86345   0.05193   0.38574   0.00000  Uiso   1.00
Si36   Si    0.67819   0.18111   0.59182   0.00000  Uiso   1.00
Si37   Si    0.81704   0.19717   0.35760   0.00000  Uiso   1.00
Si38   Si    0.67225   0.10727   0.83556   0.00000  Uiso   1.00
Si39   Si    0.79619   0.12836   0.65559   0.00000  Uiso   1.00
Si40   Si    0.81481   0.30632   0.48000   0.00000  Uiso   1.00
Si41   Si    0.69930   0.60517   0.49853   0.00000  Uiso   1.00
Si42   Si    0.85673   0.28356   0.75714   0.00000  Uiso   1.00
Si43   Si    0.68558   0.36867   0.95528   0.00000  Uiso   1.00
Si44   Si    0.88164   0.45116   0.67740   0.00000  Uiso   1.00
Si45   Si    0.83893   0.71876   0.11848   0.00000  Uiso   1.00
Si46   Si    0.65474   0.87070   0.21305   0.00000  Uiso   1.00
Si47   Si    0.95203   0.77307  -0.01381   0.00000  Uiso   1.00
Si48   Si    0.79814   0.74638   0.39218   0.00000  Uiso   1.00
Si49   Si    0.82712   0.89466   0.29300   0.00000  Uiso   1.00
Si50   Si    0.95019   0.61444   0.77463   0.00000  Uiso   1.00
Si51   Si    1.02793   0.79059   0.68976   0.00000  Uiso   1.00
C52    C     0.37597   0.39536   0.03944   0.00000  Uiso   1.00
C53    C     0.33589   0.50021   0.94197   0.00000  Uiso   1.00
C54    C     0.12722   0.06446   0.35095   0.00000  Uiso   1.00
C55    C     0.31568   0.10924   0.41563   0.00000  Uiso   1.00
C56    C     0.14250   1.03444   0.49494   0.00000  Uiso   1.00
C57    C    -0.00644   0.03024   0.93319   0.00000  Uiso   1.00
C58    C     0.17364   0.28913   0.99334   0.00000  Uiso   1.00
C59    C     0.81812  -0.08575   0.83039   0.00000  Uiso   1.00
C60    C     0.03030   0.02814   0.62647   0.00000  Uiso   1.00
C61    C     0.11909   0.07973   0.77251   0.00000  Uiso   1.00
C62    C     0.25455   0.17320   0.65222   0.00000  Uiso   1.00
C63    C     0.04893   0.34780   0.09735   0.00000  Uiso   1.00
O64    O     0.25378   0.45126   0.07430   0.00000  Uiso   1.00
C65    C     0.17435   0.54593   0.04115   0.00000  Uiso   1.00
C66    C     0.09287   0.66771   0.18720   0.00000  Uiso   1.00
C67    C     0.90735   0.55216   0.26694   0.00000  Uiso   1.00
C68    C     0.94035   0.45923   0.15014   0.00000  Uiso   1.00
C69    C     0.04816   0.32608   0.47954   0.00000  Uiso   1.00
C70    C     0.09273   0.32215   0.32973   0.00000  Uiso   1.00
C71    C     0.25506   0.44941   0.43419   0.00000  Uiso   1.00
C72    C     0.11088   0.52568   0.56277   0.00000  Uiso   1.00
O73    O     0.05434   0.51987   0.27962   0.00000  Uiso   1.00
O74    O     0.11573   0.47964   0.38595   0.00000  Uiso   1.00
C75    C    -0.03779   0.13754   0.83133   0.00000  Uiso   1.00
C76    C     0.08371   0.33903   0.70690   0.00000  Uiso   1.00
O77    O     0.11895   0.20836   0.67958   0.00000  Uiso   1.00
C78    C     0.23736   0.38757   0.60904   0.00000  Uiso   1.00
C79    C     0.26759   0.36657   0.76158   0.00000  Uiso   1.00
C80    C     0.08786   0.40023   0.90157   0.00000  Uiso   1.00
C81    C     0.93964   0.44310   0.90080   0.00000  Uiso   1.00
C82    C     0.07434   0.94600   0.19972   0.00000  Uiso   1.00
O83    O     0.02074   0.58330   0.47848   0.00000  Uiso   1.00
O84    O     0.14871   0.64450   0.37629   0.00000  Uiso   1.00
O85    O     0.00279   0.81913   0.31363   0.00000  Uiso   1.00
O86    O     0.06503   0.72971   0.39735   0.00000  Uiso   1.00
O87    O     0.13945   0.91153   0.41125   0.00000  Uiso   1.00
C88    C     0.17943   0.86536   0.29229   0.00000  Uiso   1.00
O89    O     0.10855   0.54132   0.82055   0.00000  Uiso   1.00
C90    C     0.28329   0.58332   0.77345   0.00000  Uiso   1.00
C91    C     0.18967   0.67398   0.70973   0.00000  Uiso   1.00
C92    C     0.10872   0.67682   0.97894   0.00000  Uiso   1.00
C93    C     0.14028   0.82878   0.87720   0.00000  Uiso   1.00
C94    C     0.39391  -0.05005   0.22802   0.00000  Uiso   1.00
C95    C     0.25724   0.86899   0.10160   0.00000  Uiso   1.00
C96    C     0.46234   1.03058   0.08814   0.00000  Uiso   1.00
O97    O     0.33860   0.04935   0.15290   0.00000  Uiso   1.00
C98    C     0.30978   0.18450   1.18295   0.00000  Uiso   1.00
C99    C     0.45546   0.17925   0.65837   0.00000  Uiso   1.00
O100   O     0.49513   0.07364   0.73399   0.00000  Uiso   1.00
C101   C     0.53785   0.21280   0.28181   0.00000  Uiso   1.00
O102   O     0.48638   0.22163   0.14149   0.00000  Uiso   1.00
C103   C     0.57383   0.38257   0.21335   0.00000  Uiso   1.00
C104   C     0.67969   0.31056   0.16764   0.00000  Uiso   1.00
O105   O     0.19750   0.50378   0.17310   0.00000  Uiso   1.00
O106   O     0.23268   0.58899   0.29284   0.00000  Uiso   1.00
C107   C     0.53060   0.32274   0.52271   0.00000  Uiso   1.00
C108   C     0.52602   0.38696   0.37971   0.00000  Uiso   1.00
O109   O     0.29020   0.48245   0.26765   0.00000  Uiso   1.00
C110   C     0.39807   0.37155   0.50893   0.00000  Uiso   1.00
C111   C     0.32292   0.35400   0.32534   0.00000  Uiso   1.00
C112   C     0.19871   0.30711   0.20081   0.00000  Uiso   1.00
C113   C     0.44919   0.22231   0.83842   0.00000  Uiso   1.00
O114   O     0.59745   0.25998   0.75948   0.00000  Uiso   1.00
C115   C     0.49720   0.43934   0.69377   0.00000  Uiso   1.00
O116   O     0.60031   0.40526   0.78644   0.00000  Uiso   1.00
C117   C     0.47942   0.43766   0.85394   0.00000  Uiso   1.00
O118   O     0.37353   0.64173   0.20940   0.00000  Uiso   1.00
C119   C     0.45276   0.65948   0.06809   0.00000  Uiso   1.00
C120   C     0.42927   0.79521   0.11790   0.00000  Uiso   1.00
C121   C     0.39857   0.67273   0.46484   0.00000  Uiso   1.00
C122   C     0.42631   0.47246   0.20448   0.00000  Uiso   1.00
C123   C     0.50701   0.62015   0.37883   0.00000  Uiso   1.00
C124   C     0.58817   0.72099   0.51386   0.00000  Uiso   1.00
O125   O     0.19252   0.74278   0.49104   0.00000  Uiso   1.00
C126   C     0.34776   0.91172   0.43813   0.00000  Uiso   1.00
C127   C     0.26041   0.90503   0.56127   0.00000  Uiso   1.00
C128   C     0.43186   0.78265   0.31408   0.00000  Uiso   1.00
O129   O     0.57603   0.80677   0.39739   0.00000  Uiso   1.00
C130   C     0.55735   0.96047   0.38373   0.00000  Uiso   1.00
O131   O     0.27634   0.72163   0.83467   0.00000  Uiso   1.00
C132   C     0.47720   0.80819   0.86358   0.00000  Uiso   1.00
O133   O     0.41232   0.89877   0.79141   0.00000  Uiso   1.00
C134   C     0.36908   0.87624   0.92760   0.00000  Uiso   1.00
O135   O     0.36064   0.82735   0.56191   0.00000  Uiso   1.00
C136   C     0.43504   0.75550   0.65997   0.00000  Uiso   1.00
O137   O     0.48616   0.94029   0.66766   0.00000  Uiso   1.00
C138   C     0.55857   0.90149   0.55808   0.00000  Uiso   1.00
C139   C     0.77571   0.13366   0.14638   0.00000  Uiso   1.00
O140   O     0.82822   0.02622   0.93283   0.00000  Uiso   1.00
O141   O     0.72590   0.02465   0.02537   0.00000  Uiso   1.00
C142   C     0.87297   0.20065  -0.03428   0.00000  Uiso   1.00
C143   C     0.97857   0.10410   0.44297   0.00000  Uiso   1.00
C144   C     0.76964   0.96270   0.44414   0.00000  Uiso   1.00
C145   C     0.57593   0.11079   0.52847   0.00000  Uiso   1.00
O146   O     0.63455   0.21019   0.65018   0.00000  Uiso   1.00
C147   C     0.89173   0.30729   0.30963   0.00000  Uiso   1.00
C148   C     0.70227   0.14622   0.30842   0.00000  Uiso   1.00
O149   O     0.84775   0.12602   0.35249   0.00000  Uiso   1.00
O150   O     0.60438   0.03429   0.77425   0.00000  Uiso   1.00
O151   O     0.70643   0.05908   0.88559   0.00000  Uiso   1.00
C152   C     0.59632   0.11222   0.89695   0.00000  Uiso   1.00
C153   C     0.32720   0.14230   1.03856   0.00000  Uiso   1.00
C154   C     0.87144   0.14817   0.58413   0.00000  Uiso   1.00
O155   O     0.70914   0.12492   0.62995   0.00000  Uiso   1.00
C156   C     0.76636   0.01781   0.69463   0.00000  Uiso   1.00
O157   O     0.76783   0.26836   0.55355   0.00000  Uiso   1.00
O158   O     0.81042   0.22487   0.43688   0.00000  Uiso   1.00
C159   C     0.73626   0.33137   0.43313   0.00000  Uiso   1.00
O160   O     0.92438   0.39665   0.49250   0.00000  Uiso   1.00
O161   O     0.59060   0.51284   0.49348   0.00000  Uiso   1.00
C162   C     0.72579   0.65099   0.58834   0.00000  Uiso   1.00
C163   C     0.64758   0.58814   0.78695   0.00000  Uiso   1.00
O164   O     0.76328   0.21415   0.80759   0.00000  Uiso   1.00
O165   O     0.86117   0.21500   0.70922   0.00000  Uiso   1.00
O166   O     0.95861   0.35703   0.79718   0.00000  Uiso   1.00
O167   O     0.65544   0.33499   0.87798   0.00000  Uiso   1.00
C168   C     0.72932   0.30664   0.99506   0.00000  Uiso   1.00
C169   C     0.57917   0.34370   1.00108   0.00000  Uiso   1.00
O170   O     0.94515   0.49641   0.60708   0.00000  Uiso   1.00
C171   C     0.77593   0.56765   0.48133   0.00000  Uiso   1.00
C172   C     0.76602   0.43886   0.65088   0.00000  Uiso   1.00
O173   O     0.84575   0.34739   0.70159   0.00000  Uiso   1.00
C174   C     0.79879   0.78929   0.09209   0.00000  Uiso   1.00
C175   C     0.73245   0.59652   0.13706   0.00000  Uiso   1.00
O176   O     0.90771   0.76349   0.18903   0.00000  Uiso   1.00
O177   O     0.56074   0.76961   0.18572   0.00000  Uiso   1.00
O178   O     0.68172   0.93725   0.14801   0.00000  Uiso   1.00
O179   O     0.62446   0.90058   0.27715   0.00000  Uiso   1.00
O180   O     0.96708   0.70813   0.94318   0.00000  Uiso   1.00
O181   O     0.90025   0.72380   0.05706   0.00000  Uiso   1.00
C182   C     1.07060   0.89588   0.00428   0.00000  Uiso   1.00
C183   C     0.86733   1.04000   0.11159   0.00000  Uiso   1.00
C184   C     0.86437   0.78026   0.93139   0.00000  Uiso   1.00
O185   O     0.72234   0.68417   0.44670   0.00000  Uiso   1.00
C186   C     0.78581   0.66360   0.32947   0.00000  Uiso   1.00
C187   C     0.90748   0.82239   0.44441   0.00000  Uiso   1.00
O188   O     0.91199   0.89640   0.25997   0.00000  Uiso   1.00
O189   O     0.74035   0.86576   0.23577   0.00000  Uiso   1.00
O190   O     0.78267   0.81602   0.34971   0.00000  Uiso   1.00
O191   O     0.86291   0.99086   0.32640   0.00000  Uiso   1.00
C192   C     0.77748   0.50144   0.96069   0.00000  Uiso   1.00
C193   C     0.82366   0.58070   0.78431   0.00000  Uiso   1.00
O194   O     0.93386   0.52483   0.74105   0.00000  Uiso   1.00
O195   O     1.00019   0.63565   0.85071   0.00000  Uiso   1.00
C196   C     1.15347   0.89317   0.70885   0.00000  Uiso   1.00
C197   C     1.00617   0.77918   0.59729   0.00000  Uiso   1.00
O198   O     1.01077   0.69731   0.72148   0.00000  Uiso   1.00
C199   C     0.94206   0.80334   0.72519   0.00000  Uiso   1.00
H200   H     0.43838   0.46243   0.06181   0.00000  Uiso   1.00
H201   H     0.40460   0.38119  -0.00164   0.00000  Uiso   1.00
H202   H     0.35936   0.33744   0.07756   0.00000  Uiso   1.00
H203   H     0.31956   0.46120   0.89273   0.00000  Uiso   1.00
H204   H     0.41449   0.54228   0.94964   0.00000  Uiso   1.00
H205   H     0.31615   0.54822   0.94206   0.00000  Uiso   1.00
H206   H     0.04519   0.00854   0.33570   0.00000  Uiso   1.00
H207   H     0.17289   0.09548   0.30640   0.00000  Uiso   1.00
H208   H     0.14397   0.13026   0.37236   0.00000  Uiso   1.00
H209   H     0.33356   0.10437   0.36386   0.00000  Uiso   1.00
H210   H     0.36210   0.10366   0.45160   0.00000  Uiso   1.00
H211   H     0.32903   0.17795   0.42202   0.00000  Uiso   1.00
H212   H     0.06319   0.98633   0.49765   0.00000  Uiso   1.00
H213   H     0.16861   1.10788   0.50328   0.00000  Uiso   1.00
H214   H     0.17150   1.01457   0.53709   0.00000  Uiso   1.00
H215   H     0.05479   0.10645   0.94581   0.00000  Uiso   1.00
H216   H     0.02555   0.00399   0.90101   0.00000  Uiso   1.00
H217   H    -0.03354  -0.01063   0.98423   0.00000  Uiso   1.00
H218   H     0.16204   0.24669   1.03775   0.00000  Uiso   1.00
H219   H     0.18294   0.26200   0.94571   0.00000  Uiso   1.00
H220   H     0.11154   0.29065   0.98173   0.00000  Uiso   1.00
H221   H     0.77560  -0.07091   0.79447   0.00000  Uiso   1.00
H222   H     0.76898  -0.14918   0.86263   0.00000  Uiso   1.00
H223   H     0.86228  -0.09855   0.79856   0.00000  Uiso   1.00
H224   H     0.05283  -0.02025   0.61135   0.00000  Uiso   1.00
H225   H     0.01774   0.05557   0.58060   0.00000  Uiso   1.00
H226   H    -0.04447  -0.02126   0.64888   0.00000  Uiso   1.00
H227   H     0.19075   0.09814   0.79700   0.00000  Uiso   1.00
H228   H     0.05398   0.00378   0.77407   0.00000  Uiso   1.00
H229   H     0.10923   0.12040   0.80979   0.00000  Uiso   1.00
H230   H     0.27919   0.22725   0.61071   0.00000  Uiso   1.00
H231   H     0.25106   0.11366   0.63808   0.00000  Uiso   1.00
H232   H     0.30246   0.20419   0.69657   0.00000  Uiso   1.00
H233   H     0.04397   0.28453   0.08243   0.00000  Uiso   1.00
H234   H     0.00307   0.35461   0.06398   0.00000  Uiso   1.00
H235   H     0.01684   0.33352   0.15022   0.00000  Uiso   1.00
H236   H     0.10164   0.52279   0.03318   0.00000  Uiso   1.00
H237   H     0.19431   0.54258  -0.01109   0.00000  Uiso   1.00
H238   H     0.22581   0.61987   0.05751   0.00000  Uiso   1.00
H239   H     0.13746   0.71434   0.22965   0.00000  Uiso   1.00
H240   H     0.04709   0.68533   0.15490   0.00000  Uiso   1.00
H241   H     0.14473   0.66966   0.15247   0.00000  Uiso   1.00
H242   H     0.87243   0.50035   0.30944   0.00000  Uiso   1.00
H243   H     0.84752   0.53063   0.22376   0.00000  Uiso   1.00
H244   H     0.94001   0.62155   0.28826   0.00000  Uiso   1.00
H245   H     0.88878   0.46328   0.11664   0.00000  Uiso   1.00
H246   H     0.89830   0.38559   0.17038   0.00000  Uiso   1.00
H247   H     1.00117   0.47444   0.12183   0.00000  Uiso   1.00
H248   H    -0.02131   0.28373   0.45464   0.00000  Uiso   1.00
H249   H     0.05461   0.35833   0.53131   0.00000  Uiso   1.00
H250   H     0.06546   0.27841   0.49730   0.00000  Uiso   1.00
H251   H     0.11657   0.27799   0.32972   0.00000  Uiso   1.00
H252   H     0.10568   0.35834   0.27964   0.00000  Uiso   1.00
H253   H     0.01068   0.26297   0.32975   0.00000  Uiso   1.00
H254   H     0.30463   0.49032   0.39358   0.00000  Uiso   1.00
H255   H     0.24946   0.38383   0.44485   0.00000  Uiso   1.00
H256   H     0.27600   0.48559   0.48492   0.00000  Uiso   1.00
H257   H     0.13724   0.50862   0.51855   0.00000  Uiso   1.00
H258   H     0.10018   0.48623   0.61213   0.00000  Uiso   1.00
H259   H     0.16192   0.60058   0.56888   0.00000  Uiso   1.00
H260   H    -0.02187   0.12808   0.78129   0.00000  Uiso   1.00
H261   H     0.03594   0.19082   0.85376   0.00000  Uiso   1.00
H262   H    -0.07843   0.17044   0.83067   0.00000  Uiso   1.00
H263   H     0.04561   0.29820   0.75500   0.00000  Uiso   1.00
H264   H     0.03422   0.31848   0.66175   0.00000  Uiso   1.00
H265   H     0.12097   0.41336   0.71355   0.00000  Uiso   1.00
H266   H     0.20432   0.42107   0.58570   0.00000  Uiso   1.00
H267   H     0.23331   0.34401   0.56934   0.00000  Uiso   1.00
H268   H     0.31534   0.44453   0.62096   0.00000  Uiso   1.00
H269   H     0.31883   0.44245   0.75825   0.00000  Uiso   1.00
H270   H     0.30378   0.33527   0.75385   0.00000  Uiso   1.00
H271   H     0.22546   0.34005   0.80619   0.00000  Uiso   1.00
H272   H     0.07802   0.34241   0.87499   0.00000  Uiso   1.00
H273   H     0.06737   0.38870   0.95433   0.00000  Uiso   1.00
H274   H     0.16322   0.45639   0.89143   0.00000  Uiso   1.00
H275   H     0.89728   0.46335   0.87329   0.00000  Uiso   1.00
H276   H     0.97300   0.49114   0.94233   0.00000  Uiso   1.00
H277   H     0.89370   0.37078   0.92251   0.00000  Uiso   1.00
H278   H     0.09646   0.92572   0.15673   0.00000  Uiso   1.00
H279   H     0.13561   0.97821   0.23811   0.00000  Uiso   1.00
H280   H     0.06994   1.00278   0.18276   0.00000  Uiso   1.00
H281   H     0.14053   0.83870   0.24176   0.00000  Uiso   1.00
H282   H     0.22334   0.83808   0.30125   0.00000  Uiso   1.00
H283   H     0.22479   0.94240   0.29475   0.00000  Uiso   1.00
H284   H     0.25608   0.51773   0.80136   0.00000  Uiso   1.00
H285   H     0.36265   0.63456   0.78566   0.00000  Uiso   1.00
H286   H     0.26908   0.56679   0.71464   0.00000  Uiso   1.00
H287   H     0.10883   0.62049   0.69589   0.00000  Uiso   1.00
H288   H     0.24148   0.69291   0.66946   0.00000  Uiso   1.00
H289   H     0.20229   0.74383   0.71969   0.00000  Uiso   1.00
H290   H     0.16263   0.73718   1.01458   0.00000  Uiso   1.00
H291   H     0.14834   0.65904   0.94883   0.00000  Uiso   1.00
H292   H     0.05864   0.61313   1.01239   0.00000  Uiso   1.00
H293   H     0.10953   0.86430   0.85071   0.00000  Uiso   1.00
H294   H     0.18606   0.82800   0.83621   0.00000  Uiso   1.00
H295   H     0.18573   0.87892   0.92086   0.00000  Uiso   1.00
H296   H     0.35196  -0.12574   0.23528   0.00000  Uiso   1.00
H297   H     0.38384  -0.01377   0.26636   0.00000  Uiso   1.00
H298   H     0.47211  -0.02191   0.22045   0.00000  Uiso   1.00
H299   H     0.18975   0.84162   0.12751   0.00000  Uiso   1.00
H300   H     0.27215   0.82066   0.10064   0.00000  Uiso   1.00
H301   H     0.24510   0.88392   0.04830   0.00000  Uiso   1.00
H302   H     0.50237   1.00513   0.09993   0.00000  Uiso   1.00
H303   H     0.51172   1.10782   0.08225   0.00000  Uiso   1.00
H304   H     0.42696   1.00877   0.03549   0.00000  Uiso   1.00
H305   H     0.32075   0.17563   1.23513   0.00000  Uiso   1.00
H306   H     0.23803   0.15290   1.16290   0.00000  Uiso   1.00
H307   H     0.35744   0.26279   1.17837   0.00000  Uiso   1.00
H308   H     0.39321   0.12756   0.68944   0.00000  Uiso   1.00
H309   H     0.44238   0.14693   0.60428   0.00000  Uiso   1.00
H310   H     0.47015   0.24542   0.66244   0.00000  Uiso   1.00
H311   H     0.57829   0.25408   0.32671   0.00000  Uiso   1.00
H312   H     0.54851   0.15538   0.27794   0.00000  Uiso   1.00
H313   H     0.45927   0.17877   0.29135   0.00000  Uiso   1.00
H314   H     0.50950   0.36767   0.23819   0.00000  Uiso   1.00
H315   H     0.57154   0.41292   0.16403   0.00000  Uiso   1.00
H316   H     0.63282   0.42679   0.25134   0.00000  Uiso   1.00
H317   H     0.67871   0.25462   0.14971   0.00000  Uiso   1.00
H318   H     0.72591   0.34728   0.21377   0.00000  Uiso   1.00
H319   H     0.71216   0.36599   0.12936   0.00000  Uiso   1.00
H320   H     0.58780   0.32316   0.50241   0.00000  Uiso   1.00
H321   H     0.45578   0.25272   0.52703   0.00000  Uiso   1.00
H322   H     0.56340   0.35625   0.57688   0.00000  Uiso   1.00
H323   H     0.52493   0.43532   0.34393   0.00000  Uiso   1.00
H324   H     0.46887   0.31362   0.37106   0.00000  Uiso   1.00
H325   H     0.59363   0.39923   0.37790   0.00000  Uiso   1.00
H326   H     0.38732   0.42545   0.50094   0.00000  Uiso   1.00
H327   H     0.40050   0.36481   0.56446   0.00000  Uiso   1.00
H328   H     0.33679   0.30611   0.48089   0.00000  Uiso   1.00
H329   H     0.34732   0.30971   0.30717   0.00000  Uiso   1.00
H330   H     0.25704   0.30427   0.34690   0.00000  Uiso   1.00
H331   H     0.38664   0.41083   0.35621   0.00000  Uiso   1.00
H332   H     0.22247   0.30599   0.14647   0.00000  Uiso   1.00
H333   H     0.14335   0.31959   0.19436   0.00000  Uiso   1.00
H334   H     0.16781   0.23902   0.22376   0.00000  Uiso   1.00
H335   H     0.41950   0.15260   0.81782   0.00000  Uiso   1.00
H336   H     0.40639   0.24218   0.80789   0.00000  Uiso   1.00
H337   H     0.43167   0.21469   0.89100   0.00000  Uiso   1.00
H338   H     0.55616   0.46219   0.65758   0.00000  Uiso   1.00
H339   H     0.46490   0.47360   0.68471   0.00000  Uiso   1.00
H340   H     0.44498   0.36310   0.69418   0.00000  Uiso   1.00
H341   H     0.52733   0.46609   0.90463   0.00000  Uiso   1.00
H342   H     0.41795   0.36525   0.86066   0.00000  Uiso   1.00
H343   H     0.46027   0.48521   0.84516   0.00000  Uiso   1.00
H344   H     0.51454   0.70999   0.03241   0.00000  Uiso   1.00
H345   H     0.38541   0.63694   0.04044   0.00000  Uiso   1.00
H346   H     0.45581   0.60077   0.07164   0.00000  Uiso   1.00
H347   H     0.34786   0.75974   0.11968   0.00000  Uiso   1.00
H348   H     0.46263   0.82601   0.06718   0.00000  Uiso   1.00
H349   H     0.46512   0.85554   0.14900   0.00000  Uiso   1.00
H350   H     0.37819   0.62339   0.50509   0.00000  Uiso   1.00
H351   H     0.35623   0.63927   0.41962   0.00000  Uiso   1.00
H352   H     0.39765   0.73017   0.47882   0.00000  Uiso   1.00
H353   H     0.43299   0.41889   0.18092   0.00000  Uiso   1.00
H354   H     0.48357   0.50873   0.24344   0.00000  Uiso   1.00
H355   H     0.43294   0.52345   0.16632   0.00000  Uiso   1.00
H356   H     0.48091   0.56284   0.41225   0.00000  Uiso   1.00
H357   H     0.58332   0.65013   0.36247   0.00000  Uiso   1.00
H358   H     0.44909   0.60191   0.33894   0.00000  Uiso   1.00
H359   H     0.55836   0.64911   0.52834   0.00000  Uiso   1.00
H360   H     0.56913   0.75148   0.54853   0.00000  Uiso   1.00
H361   H     0.66885   0.76730   0.50523   0.00000  Uiso   1.00
H362   H     0.29984   0.92833   0.40721   0.00000  Uiso   1.00
H363   H     0.36675   0.87546   0.40297   0.00000  Uiso   1.00
H364   H     0.41359   0.97936   0.45966   0.00000  Uiso   1.00
H365   H     0.31926   0.95455   0.59647   0.00000  Uiso   1.00
H366   H     0.19963   0.85120   0.59215   0.00000  Uiso   1.00
H367   H     0.24046   0.93996   0.52577   0.00000  Uiso   1.00
H368   H     0.37850   0.77988   0.34569   0.00000  Uiso   1.00
H369   H     0.41799   0.71126   0.31919   0.00000  Uiso   1.00
H370   H     0.43196   0.80470   0.26043   0.00000  Uiso   1.00
H371   H     0.53586   0.98785   0.34572   0.00000  Uiso   1.00
H372   H     0.63031   1.01711   0.39911   0.00000  Uiso   1.00
H373   H     0.51542   0.93352   0.43037   0.00000  Uiso   1.00
H374   H     0.54488   0.87677   0.87933   0.00000  Uiso   1.00
H375   H     0.49000   0.78840   0.81264   0.00000  Uiso   1.00
H376   H     0.46145   0.75278   0.90125   0.00000  Uiso   1.00
H377   H     0.31174   0.82037   0.96151   0.00000  Uiso   1.00
H378   H     0.34535   0.91880   0.90895   0.00000  Uiso   1.00
H379   H     0.43627   0.91987   0.95698   0.00000  Uiso   1.00
H380   H     0.38766   0.69127   0.62464   0.00000  Uiso   1.00
H381   H     0.39822   0.74353   0.70783   0.00000  Uiso   1.00
H382   H     0.50662   0.76911   0.66987   0.00000  Uiso   1.00
H383   H     0.53684   0.84723   0.51688   0.00000  Uiso   1.00
H384   H     0.61927   0.92015   0.59579   0.00000  Uiso   1.00
H385   H     0.59137   0.97157   0.53779   0.00000  Uiso   1.00
H386   H     0.81326   0.19305   0.10933   0.00000  Uiso   1.00
H387   H     0.82731   0.16166   0.19192   0.00000  Uiso   1.00
H388   H     0.70785   0.12166   0.16080   0.00000  Uiso   1.00
H389   H     0.85499   0.24458  -0.00990   0.00000  Uiso   1.00
H390   H     0.90861   0.23707  -0.08118   0.00000  Uiso   1.00
H391   H     0.92872   0.20027  -0.00145   0.00000  Uiso   1.00
H392   H     1.04014   0.16721   0.42290   0.00000  Uiso   1.00
H393   H     1.00132   0.05772   0.44380   0.00000  Uiso   1.00
H394   H     0.97279   0.11585   0.49592   0.00000  Uiso   1.00
H395   H     0.74600   0.89156   0.42960   0.00000  Uiso   1.00
H396   H     0.71260   0.97017   0.44056   0.00000  Uiso   1.00
H397   H     0.80491   0.98054   0.49443   0.00000  Uiso   1.00
H398   H     0.59845   0.09843   0.47932   0.00000  Uiso   1.00
H399   H     0.55023   0.15300   0.51989   0.00000  Uiso   1.00
H400   H     0.51476   0.04680   0.55433   0.00000  Uiso   1.00
H401   H     0.85178   0.33463   0.30155   0.00000  Uiso   1.00
H402   H     0.90745   0.29314   0.25722   0.00000  Uiso   1.00
H403   H     0.95826   0.35858   0.34083   0.00000  Uiso   1.00
H404   H     0.67624   0.08142   0.28252   0.00000  Uiso   1.00
H405   H     0.71294   0.19613   0.26587   0.00000  Uiso   1.00
H406   H     0.64792   0.14177   0.34339   0.00000  Uiso   1.00
H407   H     0.60370   0.09574   0.95233   0.00000  Uiso   1.00
H408   H     0.51976   0.06362   0.87719   0.00000  Uiso   1.00
H409   H     0.61453   0.18461   0.89396   0.00000  Uiso   1.00
H410   H     0.24794   0.08645   1.03311   0.00000  Uiso   1.00
H411   H     0.35920   0.11814   1.00850   0.00000  Uiso   1.00
H412   H     0.34344   0.21231   1.02522   0.00000  Uiso   1.00
H413   H     0.92241   0.22307   0.57554   0.00000  Uiso   1.00
H414   H     0.82552   0.11036   0.53640   0.00000  Uiso   1.00
H415   H     0.90812   0.11564   0.60469   0.00000  Uiso   1.00
H416   H     0.75611  -0.02805   0.65180   0.00000  Uiso   1.00
H417   H     0.70626  -0.02022   0.73390   0.00000  Uiso   1.00
H418   H     0.83492   0.03837   0.71431   0.00000  Uiso   1.00
H419   H     0.77305   0.37008   0.38734   0.00000  Uiso   1.00
H420   H     0.73003   0.37740   0.45989   0.00000  Uiso   1.00
H421   H     0.66884   0.26724   0.42512   0.00000  Uiso   1.00
H422   H     0.79481   0.71643   0.58459   0.00000  Uiso   1.00
H423   H     0.73212   0.60166   0.61947   0.00000  Uiso   1.00
H424   H     0.66455   0.64816   0.60517   0.00000  Uiso   1.00
H425   H     0.70367   0.62640   0.74469   0.00000  Uiso   1.00
H426   H     0.68729   0.60705   0.83738   0.00000  Uiso   1.00
H427   H     0.60740   0.61590   0.78866   0.00000  Uiso   1.00
H428   H     0.79229   0.35428   1.03132   0.00000  Uiso   1.00
H429   H     0.74540   0.27519   0.95667   0.00000  Uiso   1.00
H430   H     0.66929   0.24651   1.02737   0.00000  Uiso   1.00
H431   H     0.53882   0.26926   1.01523   0.00000  Uiso   1.00
H432   H     0.53430   0.35055   0.96961   0.00000  Uiso   1.00
H433   H     0.59566   0.39066   1.04653   0.00000  Uiso   1.00
H434   H     0.84908   0.61811   0.48808   0.00000  Uiso   1.00
H435   H     0.75889   0.53661   0.42987   0.00000  Uiso   1.00
H436   H     0.75978   0.51560   0.51736   0.00000  Uiso   1.00
H437   H     0.71551   0.40752   0.69631   0.00000  Uiso   1.00
H438   H     0.73098   0.39181   0.60772   0.00000  Uiso   1.00
H439   H     0.78361   0.50637   0.63962   0.00000  Uiso   1.00
H440   H     0.73708   0.74690   0.05442   0.00000  Uiso   1.00
H441   H     0.85640   0.85379   0.06758   0.00000  Uiso   1.00
H442   H     0.76633   0.79952   0.13356   0.00000  Uiso   1.00
H443   H     0.75268   0.56480   0.17680   0.00000  Uiso   1.00
H444   H     0.71376   0.55010   0.09347   0.00000  Uiso   1.00
H445   H     0.67276   0.59699   0.15310   0.00000  Uiso   1.00
H446   H     1.09679   0.93655  -0.04472   0.00000  Uiso   1.00
H447   H     1.12311   0.88612   0.02671   0.00000  Uiso   1.00
H448   H     1.05922   0.93831   0.03597   0.00000  Uiso   1.00
H449   H     0.88007   1.01821   0.16165   0.00000  Uiso   1.00
H450   H     0.92761   1.11345   0.11025   0.00000  Uiso   1.00
H451   H     0.86781   0.99906   0.06634   0.00000  Uiso   1.00
H452   H     0.79589   0.70520   0.92847   0.00000  Uiso   1.00
H453   H     0.89913   0.80165   0.87781   0.00000  Uiso   1.00
H454   H     0.85373   0.83003   0.94926   0.00000  Uiso   1.00
H455   H     0.71748   0.59297   0.34468   0.00000  Uiso   1.00
H456   H     0.84828   0.66543   0.33445   0.00000  Uiso   1.00
H457   H     0.77645   0.68158   0.27611   0.00000  Uiso   1.00
H458   H     0.95336   0.88455   0.41760   0.00000  Uiso   1.00
H459   H     0.93388   0.77966   0.44627   0.00000  Uiso   1.00
H460   H     0.89336   0.84173   0.49208   0.00000  Uiso   1.00
H461   H     0.81345   0.52073   1.01277   0.00000  Uiso   1.00
H462   H     0.74618   0.54207   0.95254   0.00000  Uiso   1.00
H463   H     0.83699   0.52496   0.92432   0.00000  Uiso   1.00
H464   H     0.77927   0.51381   0.81679   0.00000  Uiso   1.00
H465   H     0.78705   0.56495   0.73253   0.00000  Uiso   1.00
H466   H     0.84390   0.64978   0.80827   0.00000  Uiso   1.00
H467   H     1.20890   0.88292   0.71999   0.00000  Uiso   1.00
H468   H     1.15883   0.93546   0.75281   0.00000  Uiso   1.00
H469   H     1.17840   0.94538   0.66604   0.00000  Uiso   1.00
H470   H     0.92686   0.72422   0.58791   0.00000  Uiso   1.00
H471   H     1.04403   0.75145   0.57204   0.00000  Uiso   1.00
H472   H     1.03054   0.84550   0.57374   0.00000  Uiso   1.00
H473   H     0.94440   0.79521   0.78168   0.00000  Uiso   1.00
H474   H     0.86634   0.75375   0.70391   0.00000  Uiso   1.00
H475   H     0.96254   0.87632   0.71167   0.00000  Uiso   1.00
loop_
_geom_bond_atom_site_label_1
_geom_bond_atom_site_label_2
_geom_bond_distance
_geom_bond_site_symmetry_2
_ccdc_geom_bond_type
Si1    C52     1.915   .     S
Si1    O64     1.605   .     S
Si1    C53     1.864   1_554 S
Si1    C58     1.860   1_554 S
Si2    C54     1.913   .     S
Si2    C55     1.903   .     S
Si2    C56     1.772   1_545 S
Si2    O87     1.630   1_545 S
Si3    C57     1.883   .     S
Si3    C75     1.889   .     S
Si3    C59     1.867   1_455 S
Si3    O140    1.567   1_455 S
Si4    C60     1.891   .     S
Si4    C61     1.911   .     S
Si4    C62     1.869   .     S
Si4    O77     1.584   .     S
Si5    C63     1.885   .     S
Si5    O64     1.609   .     S
Si5    C65     1.833   .     S
Si5    O105    1.557   .     S
Si6    C66     1.909   .     S
Si6    O73     1.655   .     S
Si6    C67     1.862   1_455 S
Si6    C68     1.915   1_455 S
Si7    C69     1.897   .     S
Si7    C70     1.839   .     S
Si7    C71     1.866   .     S
Si7    O74     1.630   .     S
Si8    C72     1.918   .     S
Si8    O83     1.678   .     S
Si8    O160    1.606   1_455 S
Si8    O170    1.657   1_455 S
Si9    O73     1.609   .     S
Si9    O74     1.539   .     S
Si9    O84     1.640   .     S
Si9    O106    1.624   .     S
Si10   C76     1.801   .     S
Si10   O77     1.626   .     S
Si10   C78     1.903   .     S
Si10   C79     1.896   .     S
Si11   C80     1.855   .     S
Si11   O89     1.576   .     S
Si11   C81     1.850   1_455 S
Si11   O166    1.611   1_455 S
Si12   C82     1.788   .     S
Si12   O85     1.681   .     S
Si12   O176    1.658   1_455 S
Si12   O188    1.647   1_455 S
Si13   O83     1.645   .     S
Si13   O84     1.628   .     S
Si13   O86     1.671   .     S
Si13   O125    1.639   .     S
Si14   O85     1.658   .     S
Si14   O86     1.635   .     S
Si14   O87     1.615   .     S
Si14   C88     1.846   .     S
Si15   O89     1.634   .     S
Si15   C90     1.844   .     S
Si15   C91     1.884   .     S
Si15   O131    1.609   .     S
Si16   C92     1.878   .     S
Si16   C93     1.884   .     S
Si16   O180    1.586   1_455 S
Si16   O195    1.575   1_455 S
Si17   C94     1.816   .     S
Si17   O97     1.553   .     S
Si17   C95     1.856   1_545 S
Si17   C96     1.860   1_545 S
Si18   O97     1.570   .     S
Si18   O102    1.634   .     S
Si18   C98     1.853   1_554 S
Si18   C153    1.875   1_554 S
Si19   O100    1.635   .     S
Si19   O150    1.621   .     S
Si19   O133    1.646   1_545 S
Si19   O137    1.594   1_545 S
Si20   C99     1.794   .     S
Si20   O100    1.627   .     S
Si20   O114    1.625   .     S
Si20   O146    1.616   .     S
Si21   C101    1.862   .     S
Si21   O102    1.543   .     S
Si21   C103    1.822   .     S
Si21   C104    1.828   .     S
Si22   O105    1.583   .     S
Si22   O106    1.636   .     S
Si22   O109    1.606   .     S
Si22   O118    1.577   .     S
Si23   C107    1.874   .     S
Si23   C108    1.901   .     S
Si23   C110    1.895   .     S
Si23   O161    1.588   .     S
Si24   O109    1.570   .     S
Si24   C111    1.842   .     S
Si24   C112    1.910   .     S
Si24   C122    1.867   .     S
Si25   C113    1.920   .     S
Si25   O114    1.572   .     S
Si25   O116    1.568   .     S
Si25   O167    1.611   .     S
Si26   C115    1.837   .     S
Si26   O116    1.597   .     S
Si26   C117    1.857   .     S
Si26   C163    1.831   .     S
Si27   O118    1.677   .     S
Si27   C119    1.911   .     S
Si27   C120    1.799   .     S
Si27   O177    1.627   .     S
Si28   C121    1.890   .     S
Si28   C123    1.897   .     S
Si28   C124    1.805   .     S
Si28   O129    1.559   .     S
Si29   O125    1.600   .     S
Si29   C126    1.801   .     S
Si29   C127    1.823   .     S
Si29   O135    1.612   .     S
Si30   C128    1.847   .     S
Si30   O129    1.612   .     S
Si30   C130    1.858   .     S
Si30   O179    1.629   .     S
Si31   O131    1.645   .     S
Si31   C132    1.892   .     S
Si31   O133    1.578   .     S
Si31   C134    1.834   .     S
Si32   O135    1.653   .     S
Si32   C136    1.920   .     S
Si32   O137    1.617   .     S
Si32   C138    1.818   .     S
Si33   C139    1.851   .     S
Si33   O141    1.608   .     S
Si33   O178    1.587   1_545 S
Si33   C183    1.839   1_545 S
Si34   O141    1.634   .     S
Si34   C142    1.881   .     S
Si34   O140    1.569   1_554 S
Si34   O151    1.669   1_554 S
Si35   C143    1.931   .     S
Si35   O149    1.612   .     S
Si35   C144    1.854   1_545 S
Si35   O191    1.598   1_545 S
Si36   C145    1.857   .     S
Si36   O146    1.646   .     S
Si36   O155    1.553   .     S
Si36   O157    1.589   .     S
Si37   C147    1.829   .     S
Si37   C148    1.848   .     S
Si37   O149    1.643   .     S
Si37   O158    1.664   .     S
Si38   O150    1.614   .     S
Si38   O151    1.601   .     S
Si38   C152    1.862   .     S
Si38   O164    1.676   .     S
Si39   C154    1.835   .     S
Si39   O155    1.538   .     S
Si39   C156    1.853   .     S
Si39   O165    1.615   .     S
Si40   O157    1.608   .     S
Si40   O158    1.646   .     S
Si40   C159    1.871   .     S
Si40   O160    1.597   .     S
Si41   O161    1.588   .     S
Si41   C162    1.869   .     S
Si41   C171    1.854   .     S
Si41   O185    1.564   .     S
Si42   O164    1.674   .     S
Si42   O165    1.588   .     S
Si42   O166    1.609   .     S
Si42   O173    1.638   .     S
Si43   O167    1.583   .     S
Si43   C168    1.818   .     S
Si43   C169    1.885   .     S
Si43   C192    1.888   .     S
Si44   O170    1.664   .     S
Si44   C172    1.933   .     S
Si44   O173    1.612   .     S
Si44   O194    1.618   .     S
Si45   C174    1.817   .     S
Si45   C175    1.855   .     S
Si45   O176    1.650   .     S
Si45   O181    1.604   .     S
Si46   O177    1.613   .     S
Si46   O178    1.596   .     S
Si46   O179    1.596   .     S
Si46   O189    1.586   .     S
Si47   O181    1.613   .     S
Si47   C182    1.916   .     S
Si47   O180    1.587   1_554 S
Si47   C184    1.889   1_554 S
Si48   O185    1.552   .     S
Si48   C186    1.836   .     S
Si48   C187    1.809   .     S
Si48   O190    1.618   .     S
Si49   O188    1.617   .     S
Si49   O189    1.654   .     S
Si49   O190    1.574   .     S
Si49   O191    1.566   .     S
Si50   C193    1.916   .     S
Si50   O194    1.586   .     S
Si50   O195    1.621   .     S
Si50   O198    1.585   .     S
Si51   C196    1.839   .     S
Si51   C197    1.821   .     S
Si51   O198    1.607   .     S
Si51   C199    1.804   .     S
C52    H200    1.099   .     S
C52    H201    1.071   .     S
C52    H202    1.149   .     S
C53    H203    1.119   .     S
C53    H204    1.097   .     S
C53    H205    1.091   .     S
C53    Si1     1.864   1_556 S
C54    H206    1.173   .     S
C54    H207    1.097   .     S
C54    H208    1.104   .     S
C55    H209    1.091   .     S
C55    H210    1.095   .     S
C55    H211    1.102   .     S
C56    H212    1.103   .     S
C56    H213    1.102   .     S
C56    H214    1.106   .     S
C56    Si2     1.772   1_565 S
C57    H215    1.130   .     S
C57    H216    1.128   .     S
C57    H217    1.158   .     S
C58    H218    1.079   .     S
C58    H219    1.117   .     S
C58    H220    1.109   .     S
C58    Si1     1.860   1_556 S
C59    H221    1.135   .     S
C59    H222    1.118   .     S
C59    H223    1.132   .     S
C59    Si3     1.867   1_655 S
C60    H224    1.183   .     S
C60    H225    1.086   .     S
C60    H226    1.144   .     S
C61    H227    1.162   .     S
C61    H228    1.122   .     S
C61    H229    1.122   .     S
C62    H230    1.123   .     S
C62    H231    1.061   .     S
C62    H232    1.074   .     S
C63    H233    1.115   .     S
C63    H234    1.069   .     S
C63    H235    1.145   .     S
C65    H236    1.072   .     S
C65    H237    1.106   .     S
C65    H238    1.095   .     S
C66    H239    1.083   .     S
C66    H240    1.173   .     S
C66    H241    1.135   .     S
C67    H242    1.114   .     S
C67    H243    1.183   .     S
C67    H244    1.080   .     S
C67    Si6     1.862   1_655 S
C68    H245    1.123   .     S
C68    H246    1.117   .     S
C68    H247    1.094   .     S
C68    Si6     1.915   1_655 S
C69    H248    1.063   .     S
C69    H249    1.140   .     S
C69    H250    1.099   .     S
C70    H251    1.083   .     S
C70    H252    1.113   .     S
C70    H253    1.153   .     S
C71    H254    1.086   .     S
C71    H255    1.121   .     S
C71    H256    1.114   .     S
C72    H257    1.122   .     S
C72    H258    1.133   .     S
C72    H259    1.068   .     S
C75    H260    1.071   .     S
C75    H261    1.112   .     S
C75    H262    1.154   .     S
C76    H263    1.137   .     S
C76    H264    1.105   .     S
C76    H265    1.069   .     S
C78    H266    1.125   .     S
C78    H267    1.076   .     S
C78    H268    1.115   .     S
C79    H269    1.078   .     S
C79    H270    1.075   .     S
C79    H271    1.068   .     S
C80    H272    1.073   .     S
C80    H273    1.080   .     S
C80    H274    1.090   .     S
C81    H275    1.111   .     S
C81    H276    1.055   .     S
C81    H277    1.110   .     S
C81    Si11    1.850   1_655 S
C82    H278    1.090   .     S
C82    H279    1.113   .     S
C82    H280    1.097   .     S
O87    Si2     1.630   1_565 S
C88    H281    1.110   .     S
C88    H282    1.129   .     S
C88    H283    1.091   .     S
C90    H284    1.098   .     S
C90    H285    1.120   .     S
C90    H286    1.171   .     S
C91    H287    1.148   .     S
C91    H288    1.108   .     S
C91    H289    1.138   .     S
C92    H290    1.129   .     S
C92    H291    1.106   .     S
C92    H292    1.137   .     S
C93    H293    1.147   .     S
C93    H294    1.159   .     S
C93    H295    1.127   .     S
C94    H296    1.083   .     S
C94    H297    1.082   .     S
C94    H298    1.146   .     S
C95    H299    1.105   .     S
C95    H300    1.033   .     S
C95    H301    1.112   .     S
C95    Si17    1.856   1_565 S
C96    H302    1.048   .     S
C96    H303    1.099   .     S
C96    H304    1.124   .     S
C96    Si17    1.860   1_565 S
C98    H305    1.056   .     S
C98    H306    1.071   .     S
C98    H307    1.111   .     S
C98    Si18    1.853   1_556 S
C99    H308    1.103   .     S
C99    H309    1.160   .     S
C99    H310    1.042   .     S
C101   H311    1.074   .     S
C101   H312    1.142   .     S
C101   H313    1.134   .     S
C103   H314    1.113   .     S
C103   H315    1.105   .     S
C103   H316    1.099   .     S
C104   H317    1.048   .     S
C104   H318    1.102   .     S
C104   H319    1.086   .     S
C107   H320    1.081   .     S
C107   H321    1.139   .     S
C107   H322    1.168   .     S
C108   H323    1.103   .     S
C108   H324    1.069   .     S
C108   H325    1.060   .     S
C110   H326    1.085   .     S
C110   H327    1.091   .     S
C110   H328    1.126   .     S
C111   H329    1.160   .     S
C111   H330    1.037   .     S
C111   H331    1.108   .     S
C112   H332    1.161   .     S
C112   H333    1.111   .     S
C112   H334    1.078   .     S
C113   H335    1.090   .     S
C113   H336    1.140   .     S
C113   H337    1.067   .     S
C115   H338    1.124   .     S
C115   H339    1.054   .     S
C115   H340    1.082   .     S
C117   H341    1.172   .     S
C117   H342    1.076   .     S
C117   H343    1.084   .     S
C119   H344    1.149   .     S
C119   H345    1.101   .     S
C119   H346    1.073   .     S
C120   H347    1.153   .     S
C120   H348    1.124   .     S
C120   H349    1.045   .     S
C121   H350    1.063   .     S
C121   H351    1.056   .     S
C121   H352    1.068   .     S
C122   H353    1.132   .     S
C122   H354    1.080   .     S
C122   H355    1.113   .     S
C123   H356    1.052   .     S
C123   H357    1.150   .     S
C123   H358    1.130   .     S
C124   H359    1.083   .     S
C124   H360    1.054   .     S
C124   H361    1.138   .     S
C126   H362    1.178   .     S
C126   H363    1.134   .     S
C126   H364    1.118   .     S
C127   H365    1.083   .     S
C127   H366    1.098   .     S
C127   H367    1.097   .     S
C128   H368    1.112   .     S
C128   H369    1.139   .     S
C128   H370    1.111   .     S
C130   H371    1.051   .     S
C130   H372    1.073   .     S
C130   H373    1.100   .     S
C132   H374    1.103   .     S
C132   H375    1.136   .     S
C132   H376    1.115   .     S
O133   Si19    1.646   1_565 S
C134   H377    1.119   .     S
C134   H378    1.105   .     S
C134   H379    1.079   .     S
C136   H380    1.142   .     S
C136   H381    1.099   .     S
C136   H382    1.123   .     S
O137   Si19    1.594   1_565 S
C138   H383    1.133   .     S
C138   H384    1.135   .     S
C138   H385    1.081   .     S
C139   H386    1.113   .     S
C139   H387    1.121   .     S
C139   H388    1.113   .     S
O140   Si3     1.567   1_655 S
O140   Si34    1.569   1_556 S
C142   H389    1.118   .     S
C142   H390    1.088   .     S
C142   H391    1.142   .     S
C143   H392    1.061   .     S
C143   H393    1.105   .     S
C143   H394    1.081   .     S
C144   H395    1.104   .     S
C144   H396    1.075   .     S
C144   H397    1.081   .     S
C144   Si35    1.854   1_565 S
C145   H398    1.126   .     S
C145   H399    1.085   .     S
C145   H400    1.114   .     S
C147   H401    1.064   .     S
C147   H402    1.142   .     S
C147   H403    1.109   .     S
C148   H404    1.076   .     S
C148   H405    1.137   .     S
C148   H406    1.152   .     S
O151   Si34    1.669   1_556 S
C152   H407    1.137   .     S
C152   H408    1.118   .     S
C152   H409    1.121   .     S
C153   H410    1.112   .     S
C153   H411    1.078   .     S
C153   H412    1.121   .     S
C153   Si18    1.875   1_556 S
C154   H413    1.077   .     S
C154   H414    1.129   .     S
C154   H415    1.144   .     S
C156   H416    1.111   .     S
C156   H417    1.154   .     S
C156   H418    1.069   .     S
C159   H419    1.084   .     S
C159   H420    1.038   .     S
C159   H421    1.037   .     S
O160   Si8     1.606   1_655 S
C162   H422    1.057   .     S
C162   H423    1.110   .     S
C162   H424    1.099   .     S
C163   H425    1.158   .     S
C163   H426    1.112   .     S
C163   H427    1.070   .     S
O166   Si11    1.611   1_655 S
C168   H428    1.121   .     S
C168   H429    1.084   .     S
C168   H430    1.145   .     S
C169   H431    1.093   .     S
C169   H432    1.034   .     S
C169   H433    1.134   .     S
O170   Si8     1.657   1_655 S
C171   H434    1.026   .     S
C171   H435    1.097   .     S
C171   H436    1.050   .     S
C172   H437    1.152   .     S
C172   H438    1.073   .     S
C172   H439    1.061   .     S
C174   H440    1.114   .     S
C174   H441    1.085   .     S
C174   H442    1.084   .     S
C175   H443    1.113   .     S
C175   H444    1.091   .     S
C175   H445    1.101   .     S
O176   Si12    1.658   1_655 S
O178   Si33    1.587   1_565 S
O180   Si16    1.586   1_655 S
O180   Si47    1.587   1_556 S
C182   H446    1.121   .     S
C182   H447    1.098   .     S
C182   H448    1.094   .     S
C183   H449    1.106   .     S
C183   H450    1.072   .     S
C183   H451    1.159   .     S
C183   Si33    1.839   1_565 S
C184   H452    1.131   .     S
C184   H453    1.169   .     S
C184   H454    1.071   .     S
C184   Si47    1.889   1_556 S
C186   H455    1.135   .     S
C186   H456    1.066   .     S
C186   H457    1.118   .     S
C187   H458    1.038   .     S
C187   H459    1.095   .     S
C187   H460    1.086   .     S
O188   Si12    1.647   1_655 S
O191   Si35    1.598   1_565 S
C192   H461    1.116   .     S
C192   H462    1.139   .     S
C192   H463    1.131   .     S
C193   H464    1.145   .     S
C193   H465    1.118   .     S
C193   H466    1.154   .     S
O195   Si16    1.575   1_655 S
C196   H467    1.094   .     S
C196   H468    1.115   .     S
C196   H469    1.122   .     S
C197   H470    1.118   .     S
C197   H471    1.159   .     S
C197   H472    1.080   .     S
C199   H473    1.113   .     S
C199   H474    1.118   .     S
C199   H475    1.143   .     S
