data_333-7-11-18-15-30-15
_audit_creation_date              2025-03-07
_audit_creation_method            'Materials Studio'
_symmetry_space_group_name_H-M    'P1'
_symmetry_Int_Tables_number       1
_symmetry_cell_setting            triclinic
loop_
_symmetry_equiv_pos_as_xyz
  x,y,z
_cell_length_a                    15.6173
_cell_length_b                    18.2912
_cell_length_c                    20.4650
_cell_angle_alpha                 97.2410
_cell_angle_beta                  91.0100
_cell_angle_gamma                 117.6549
loop_
_atom_site_label
_atom_site_type_symbol
_atom_site_fract_x
_atom_site_fract_y
_atom_site_fract_z
_atom_site_U_iso_or_equiv
_atom_site_adp_type
_atom_site_occupancy
Si1    Si    0.16203   0.23329   0.00305   0.00000  Uiso   1.00
Si2    Si    0.27269   0.06943   0.33975   0.00000  Uiso   1.00
Si3    Si    0.22532   0.19014   0.27632   0.00000  Uiso   1.00
Si4    Si    0.14729   0.00699   0.88024   0.00000  Uiso   1.00
Si5    Si   -0.02357   0.19754   0.91742   0.00000  Uiso   1.00
Si6    Si    0.16143   0.38488   0.08157   0.00000  Uiso   1.00
Si7    Si    0.26371   0.61274  -0.15062   0.00000  Uiso   1.00
Si8    Si   -0.15018   0.34720   0.56586   0.00000  Uiso   1.00
Si9    Si    0.11102   0.49852   0.41525   0.00000  Uiso   1.00
Si10   Si    0.11176   0.33362   0.83872   0.00000  Uiso   1.00
Si11   Si    0.40702   0.78800   0.83279   0.00000  Uiso   1.00
Si12   Si    0.05811   0.59720  -0.14116   0.00000  Uiso   1.00
Si13   Si    0.01875   0.72085  -0.05067   0.00000  Uiso   1.00
Si14   Si    0.02647   0.50994   0.54666   0.00000  Uiso   1.00
Si15   Si   -0.02847   0.85524   0.91484   0.00000  Uiso   1.00
Si16   Si    0.37938   0.06266   0.07399   0.00000  Uiso   1.00
Si17   Si    0.41448   0.30842   0.21735   0.00000  Uiso   1.00
Si18   Si    0.49272   0.23059   0.02448   0.00000  Uiso   1.00
Si19   Si    0.43558  -0.17860   0.37401   0.00000  Uiso   1.00
Si20   Si    0.30342   0.18019   0.92852   0.00000  Uiso   1.00
Si21   Si    0.48988   0.39053   0.09649   0.00000  Uiso   1.00
Si22   Si    0.30975   0.52052   0.18897   0.00000  Uiso   1.00
Si23   Si    0.45396   0.49800   0.00876   0.00000  Uiso   1.00
Si24   Si    0.34312   0.32836   0.58707   0.00000  Uiso   1.00
Si25   Si    0.52194   0.69931   0.56415   0.00000  Uiso   1.00
Si26   Si    0.38868   0.19887   0.79845   0.00000  Uiso   1.00
Si27   Si    0.30516   0.48084   0.89902   0.00000  Uiso   1.00
Si28   Si    0.49056   0.63242   0.12622   0.00000  Uiso   1.00
Si29   Si    0.40473   0.72202   0.05663   0.00000  Uiso   1.00
Si30   Si    0.67715   0.80494   0.47808   0.00000  Uiso   1.00
Si31   Si    0.39239   0.85822   0.50927   0.00000  Uiso   1.00
Si32   Si    0.56939   0.74969   0.34161   0.00000  Uiso   1.00
Si33   Si    0.58046   0.98118   0.59716   0.00000  Uiso   1.00
Si34   Si    0.76051  -0.08388   0.12195   0.00000  Uiso   1.00
Si35   Si    0.80837   0.19651   0.00383   0.00000  Uiso   1.00
Si36   Si    0.94985   0.08895   0.54909   0.00000  Uiso   1.00
Si37   Si    0.59150  -0.01051   0.34400   0.00000  Uiso   1.00
Si38   Si    0.84340   0.07081   0.79426   0.00000  Uiso   1.00
Si39   Si    0.69174   0.28941   0.97390   0.00000  Uiso   1.00
Si40   Si    0.79662   0.23422   0.15044   0.00000  Uiso   1.00
Si41   Si    0.85801   0.54652   0.31263   0.00000  Uiso   1.00
Si42   Si    0.55956   0.40828   0.63645   0.00000  Uiso   1.00
Si43   Si    0.69930   0.33930   0.66032   0.00000  Uiso   1.00
Si44   Si    0.97579   0.60300   0.19340   0.00000  Uiso   1.00
Si45   Si    0.66740   0.77829   0.21027   0.00000  Uiso   1.00
Si46   Si    0.80351   0.83964  -0.00666   0.00000  Uiso   1.00
Si47   Si    0.64407   0.44694   0.50681   0.00000  Uiso   1.00
Si48   Si    0.75927   0.95502   0.58776   0.00000  Uiso   1.00
Si49   Si    0.87642   0.83783   0.25919   0.00000  Uiso   1.00
Si50   Si    0.85435   0.80133   0.78004   0.00000  Uiso   1.00
Si51   Si    0.87261   0.94111   0.70313   0.00000  Uiso   1.00
C52    C     0.14211   0.17375   0.07109   0.00000  Uiso   1.00
C53    C     0.37593   0.14472   0.40165   0.00000  Uiso   1.00
C54    C     0.16456   1.01904   0.38766   0.00000  Uiso   1.00
C55    C     0.28795   0.98284   0.29306   0.00000  Uiso   1.00
C56    C     0.10109   0.14512   0.23388   0.00000  Uiso   1.00
O57    O     0.24441   0.11639   0.28940   0.00000  Uiso   1.00
C58    C     0.23336   0.26222   0.35217   0.00000  Uiso   1.00
C59    C     0.07793   0.04465   0.82869   0.00000  Uiso   1.00
C60    C     0.20075   0.95273   0.82457   0.00000  Uiso   1.00
O61    O     0.06354   0.19040   0.95361   0.00000  Uiso   1.00
C62    C     0.08292   0.32620   0.14428   0.00000  Uiso   1.00
O63    O     0.19066   0.32686   0.03251   0.00000  Uiso   1.00
C64    C     0.08575   0.41886   0.02901   0.00000  Uiso   1.00
C65    C     0.25602   0.57393  -0.24400   0.00000  Uiso   1.00
C66    C    -0.09546   0.29687   0.61368   0.00000  Uiso   1.00
C67    C     0.82404   0.29534   0.47764   0.00000  Uiso   1.00
C68    C     0.04268   0.45087   0.33164   0.00000  Uiso   1.00
C69    C     0.17171   0.43516   0.43591   0.00000  Uiso   1.00
O70    O     0.02277   0.27662   0.87718   0.00000  Uiso   1.00
C71    C     0.15872   0.26172   0.80031   0.00000  Uiso   1.00
C72    C     0.05714   0.37381   0.77725   0.00000  Uiso   1.00
O73    O     0.32542   0.71302   0.86221   0.00000  Uiso   1.00
C74    C     0.44243   0.88473   0.89014   0.00000  Uiso   1.00
C75    C     1.34653   0.79302   0.75136   0.00000  Uiso   1.00
C76    C     1.51804   0.77447   0.82006   0.00000  Uiso   1.00
C77    C     0.03927   0.61234  -0.22748   0.00000  Uiso   1.00
O78    O     0.15354   0.58664  -0.13432   0.00000  Uiso   1.00
C79    C    -0.04705   0.49904  -0.11974   0.00000  Uiso   1.00
O80    O     0.07529   0.67988  -0.09122   0.00000  Uiso   1.00
C81    C    -0.10118   0.64369  -0.02732   0.00000  Uiso   1.00
C82    C     0.09612   0.77906   1.02692   0.00000  Uiso   1.00
O83    O    -0.07450   0.44294   0.56308   0.00000  Uiso   1.00
O84    O     0.03971   0.50199   0.47001   0.00000  Uiso   1.00
C85    C     0.02885   0.60898   0.57825   0.00000  Uiso   1.00
O86    O    -0.00044   0.78040   0.90738   0.00000  Uiso   1.00
O87    O     0.07091   0.94474   0.92316   0.00000  Uiso   1.00
C88    C     0.42372   0.02158   0.13793   0.00000  Uiso   1.00
C89    C     0.25468   1.04378   0.08769   0.00000  Uiso   1.00
C90    C     0.48777   0.25245   0.21302   0.00000  Uiso   1.00
C91    C     0.47637   0.40095   0.28462   0.00000  Uiso   1.00
O92    O     0.30462   0.24509   0.23004   0.00000  Uiso   1.00
O93    O     0.45117   0.15936   0.06928   0.00000  Uiso   1.00
C94    C     0.32847  -0.19549   0.32054   0.00000  Uiso   1.00
O95    O     0.23335   0.08141   0.92243   0.00000  Uiso   1.00
O96    O     0.40981   0.20967   0.96526   0.00000  Uiso   1.00
O97    O     0.25406   0.23605   0.96337   0.00000  Uiso   1.00
O98    O     0.41538   0.34693   0.14857   0.00000  Uiso   1.00
O99    O     0.51866   0.32257   0.06276   0.00000  Uiso   1.00
O100   O     0.25174   0.46445   0.12080   0.00000  Uiso   1.00
C101   C     0.28918   0.45645   0.25576   0.00000  Uiso   1.00
C102   C     0.26037   0.59233   0.21176   0.00000  Uiso   1.00
C103   C     0.20582   0.60249   0.40192   0.00000  Uiso   1.00
O104   O     0.43846   0.42086   0.04436   0.00000  Uiso   1.00
C105   C     0.55199   0.50886   0.95136   0.00000  Uiso   1.00
C106   C     0.27258   0.21386   0.55960   0.00000  Uiso   1.00
C107   C     0.37821   0.39087   0.51893   0.00000  Uiso   1.00
C108   C     0.27741   0.37725   0.63532   0.00000  Uiso   1.00
C109   C     0.41194   0.60829   0.52358   0.00000  Uiso   1.00
C110   C     0.58440   0.65212   0.60937   0.00000  Uiso   1.00
C111   C     0.49701   0.76827   0.62822   0.00000  Uiso   1.00
O112   O     0.32170   0.20317   0.85587   0.00000  Uiso   1.00
C113   C     0.32080   0.15881   0.71413   0.00000  Uiso   1.00
C114   C     0.48497   0.30811   0.79145   0.00000  Uiso   1.00
C115   C     0.44695   0.12910   0.81331   0.00000  Uiso   1.00
O116   O     0.19383   0.40481   0.88969   0.00000  Uiso   1.00
O117   O     0.35836   0.48249   0.96691   0.00000  Uiso   1.00
C118   C     0.37551   0.45905   0.83034   0.00000  Uiso   1.00
O119   O     0.30579   0.56541   0.89119   0.00000  Uiso   1.00
O120   O     0.42176   0.56731   0.17228   0.00000  Uiso   1.00
O121   O     0.49548   0.58098   0.05949   0.00000  Uiso   1.00
O122   O     0.44025   0.68780   0.11253   0.00000  Uiso   1.00
C123   C     0.42086   0.82512   0.09504   0.00000  Uiso   1.00
C124   C     0.35801   0.99620  -0.00541   0.00000  Uiso   1.00
C125   C     0.26776   0.65527   1.03070   0.00000  Uiso   1.00
C126   C     0.48413   0.74011   0.98793   0.00000  Uiso   1.00
O127   O     0.57805   0.74959   0.50886   0.00000  Uiso   1.00
C128   C     0.75932   0.76029   0.49067   0.00000  Uiso   1.00
C129   C     0.11818   0.49549   0.58868   0.00000  Uiso   1.00
C130   C     0.29616   0.79111   0.55846   0.00000  Uiso   1.00
O131   O     0.40131   0.80562   0.44590   0.00000  Uiso   1.00
C132   C     0.36045   0.94131   0.49335   0.00000  Uiso   1.00
C133   C     0.54092   0.63603   0.33364   0.00000  Uiso   1.00
O134   O     0.65135   0.80060   0.40230   0.00000  Uiso   1.00
O135   O     0.47621   0.76052   0.35020   0.00000  Uiso   1.00
O136   O     0.49326   0.90027   0.55254   0.00000  Uiso   1.00
C137   C     0.53898   1.01499   0.67671   0.00000  Uiso   1.00
C138   C     0.61939   1.07104   0.54847   0.00000  Uiso   1.00
C139   C     0.86928   0.01484   0.16512   0.00000  Uiso   1.00
O140   O     0.91307   0.21930   0.97277   0.00000  Uiso   1.00
C141   C     0.68825  -0.04678   0.07535   0.00000  Uiso   1.00
C142   C     0.70725   0.08951  -0.03957   0.00000  Uiso   1.00
C143   C     0.93188   0.13495   0.48055   0.00000  Uiso   1.00
C144   C     1.03852   0.17754   0.61114   0.00000  Uiso   1.00
O145   O     0.51658  -0.08386   0.37872   0.00000  Uiso   1.00
C146   C     0.71460   0.00742   0.37011   0.00000  Uiso   1.00
C147   C     0.56899  -0.03605   0.25164   0.00000  Uiso   1.00
C148   C     0.57728   0.08325   0.36239   0.00000  Uiso   1.00
C149   C     0.84737   0.15197   0.74806   0.00000  Uiso   1.00
O150   O     0.90310   0.11310   0.86492   0.00000  Uiso   1.00
C151   C     0.70898   0.99021   0.79817   0.00000  Uiso   1.00
C152   C     0.68895   0.27002   0.88193   0.00000  Uiso   1.00
O153   O     0.77544   0.26799   0.99632   0.00000  Uiso   1.00
C154   C     0.72574   0.40236   0.99807   0.00000  Uiso   1.00
O155   O     0.58119   0.23309   0.99205   0.00000  Uiso   1.00
C156   C     0.66953   0.18770   0.15794   0.00000  Uiso   1.00
O157   O     0.81475   0.19185   0.08203   0.00000  Uiso   1.00
C158   C     0.85089   0.35264   0.15618   0.00000  Uiso   1.00
C159   C     0.84775   0.20167   0.22080   0.00000  Uiso   1.00
C160   C     0.60073   0.48342   0.13968   0.00000  Uiso   1.00
C161   C     0.78385   0.43491   0.32814   0.00000  Uiso   1.00
C162   C     0.94115   0.61952   0.38741   0.00000  Uiso   1.00
C163   C     0.76898   0.58343   0.30012   0.00000  Uiso   1.00
O164   O     0.44336   0.35358   0.62701   0.00000  Uiso   1.00
C165   C     0.60270   0.50140   0.70418   0.00000  Uiso   1.00
O166   O     0.75250   0.33770   0.59476   0.00000  Uiso   1.00
O167   O     0.60493   0.34796   0.64414   0.00000  Uiso   1.00
C168   C     0.65745   0.23303   0.69008   0.00000  Uiso   1.00
O169   O     0.91401   0.55167   0.25033   0.00000  Uiso   1.00
C170   C     1.00271   0.54170   0.12407   0.00000  Uiso   1.00
C171   C     1.09510   0.68977   0.23338   0.00000  Uiso   1.00
O172   O     0.59758   0.69143   0.16119   0.00000  Uiso   1.00
O173   O     0.69532   0.85827   0.17384   0.00000  Uiso   1.00
O174   O     0.61643   0.78805   0.27621   0.00000  Uiso   1.00
O175   O     0.90811   0.85640   0.97672   0.00000  Uiso   1.00
C176   C     0.90134   0.64227   0.15159   0.00000  Uiso   1.00
C177   C     0.71493   0.72993  -0.02779   0.00000  Uiso   1.00
O178   O     0.79635   0.86533   0.07252   0.00000  Uiso   1.00
C179   C     0.75931   0.89189   0.94326   0.00000  Uiso   1.00
O180   O     0.58745   0.44414   0.57125   0.00000  Uiso   1.00
C181   C     0.61624   0.33721   0.46867   0.00000  Uiso   1.00
C182   C     0.78161   0.51763   0.53243   0.00000  Uiso   1.00
O183   O     0.72093   0.89756   0.51694   0.00000  Uiso   1.00
O184   O     0.84871   1.04186   0.58049   0.00000  Uiso   1.00
O185   O     0.66697   0.96250   0.61136   0.00000  Uiso   1.00
C186   C     0.96879   0.86571   0.19675   0.00000  Uiso   1.00
O187   O     0.76505   0.77823   0.22911   0.00000  Uiso   1.00
C188   C     0.60112   0.50131   0.45420   0.00000  Uiso   1.00
C189   C     0.91091   0.79594   0.32434   0.00000  Uiso   1.00
C190   C     0.87071   0.93167   0.29942   0.00000  Uiso   1.00
C191   C     1.00363   1.02055   0.51588   0.00000  Uiso   1.00
C192   C     0.73393   0.72241   0.80288   0.00000  Uiso   1.00
C193   C     0.77498   0.42082   0.72842   0.00000  Uiso   1.00
C194   C     0.91681   0.75152   0.73213   0.00000  Uiso   1.00
O195   O     0.91591   0.84934   0.84943   0.00000  Uiso   1.00
C196   C     0.98155   0.95107   0.66048   0.00000  Uiso   1.00
O197   O     0.79430   0.91652   0.64129   0.00000  Uiso   1.00
O198   O     0.83828   0.86136   0.74108   0.00000  Uiso   1.00
O199   O     0.89111   1.02486   0.75120   0.00000  Uiso   1.00
H200   H     0.13291   0.10926   0.05567   0.00000  Uiso   1.00
H201   H     0.07154   0.16459   0.08972   0.00000  Uiso   1.00
H202   H     0.20342   0.20872   0.10967   0.00000  Uiso   1.00
H203   H     0.44824   0.17626   0.37891   0.00000  Uiso   1.00
H204   H     0.38362   0.11374   0.44412   0.00000  Uiso   1.00
H205   H     0.36641   0.19799   0.42072   0.00000  Uiso   1.00
H206   H     0.10025   0.98261   0.34730   0.00000  Uiso   1.00
H207   H     0.16216   1.07127   0.41541   0.00000  Uiso   1.00
H208   H     0.17488   0.97643   0.41837   0.00000  Uiso   1.00
H209   H     0.36065   1.01154   0.27790   0.00000  Uiso   1.00
H210   H     0.23469   0.95282   0.24825   0.00000  Uiso   1.00
H211   H     0.27626   0.93679   0.32525   0.00000  Uiso   1.00
H212   H     0.04724   0.10637   0.26549   0.00000  Uiso   1.00
H213   H     0.10011   0.11079   0.18817   0.00000  Uiso   1.00
H214   H     0.08611   0.19581   0.22787   0.00000  Uiso   1.00
H215   H     0.20594   0.22445   0.39257   0.00000  Uiso   1.00
H216   H     0.19146   0.29975   0.34903   0.00000  Uiso   1.00
H217   H     0.31059   0.29999   0.37031   0.00000  Uiso   1.00
H218   H     0.08757   0.10337   0.85592   0.00000  Uiso   1.00
H219   H    -0.00370  -0.00024   0.82848   0.00000  Uiso   1.00
H220   H     0.10512   0.05064   0.77938   0.00000  Uiso   1.00
H221   H     0.24418   0.92835   0.84920   0.00000  Uiso   1.00
H222   H     0.23574   0.98644   0.78455   0.00000  Uiso   1.00
H223   H     0.14293   0.89379   0.79797   0.00000  Uiso   1.00
H224   H     0.13221   0.31531   0.17828   0.00000  Uiso   1.00
H225   H     0.01895   0.26486   0.12289   0.00000  Uiso   1.00
H226   H     0.04929   0.36195   0.16739   0.00000  Uiso   1.00
H227   H     0.09719   0.40740  -0.02323   0.00000  Uiso   1.00
H228   H     0.10144   0.48549   0.04326   0.00000  Uiso   1.00
H229   H     0.00655   0.37815   0.03343   0.00000  Uiso   1.00
H230   H     0.32930   0.60597  -0.26447   0.00000  Uiso   1.00
H231   H     0.20303   0.58908  -0.27125   0.00000  Uiso   1.00
H232   H     0.24620   0.50833  -0.25187   0.00000  Uiso   1.00
H233   H    -0.01825   0.31998   0.60327   0.00000  Uiso   1.00
H234   H    -0.14591   0.22889   0.60590   0.00000  Uiso   1.00
H235   H    -0.09759   0.31509   0.66786   0.00000  Uiso   1.00
H236   H     0.81800   0.33970   0.44539   0.00000  Uiso   1.00
H237   H     0.75590   0.23694   0.47844   0.00000  Uiso   1.00
H238   H     0.88225   0.27999   0.46480   0.00000  Uiso   1.00
H239   H    -0.00630   0.48050   0.32482   0.00000  Uiso   1.00
H240   H    -0.00288   0.38337   0.33288   0.00000  Uiso   1.00
H241   H     0.09451   0.46343   0.29310   0.00000  Uiso   1.00
H242   H     0.20166   0.42356   0.38664   0.00000  Uiso   1.00
H243   H     0.11190   0.37321   0.44171   0.00000  Uiso   1.00
H244   H     0.22409   0.46376   0.47778   0.00000  Uiso   1.00
H245   H     0.22773   0.29056   0.78091   0.00000  Uiso   1.00
H246   H     0.10300   0.20930   0.76273   0.00000  Uiso   1.00
H247   H     0.16314   0.22697   0.84095   0.00000  Uiso   1.00
H248   H     0.07642   0.35568   0.72979   0.00000  Uiso   1.00
H249   H     0.08405   0.44805   0.78667   0.00000  Uiso   1.00
H250   H    -0.02165   0.33850   0.77452   0.00000  Uiso   1.00
H251   H     0.52019   0.91073   0.90044   0.00000  Uiso   1.00
H252   H     0.41291   0.86936   0.93676   0.00000  Uiso   1.00
H253   H     0.42225   0.92777   0.86097   0.00000  Uiso   1.00
H254   H     1.33007   0.73623   0.71991   0.00000  Uiso   1.00
H255   H     1.39685   0.84145   0.72442   0.00000  Uiso   1.00
H256   H     1.27621   0.79763   0.76318   0.00000  Uiso   1.00
H257   H     1.50105   0.70671   0.81512   0.00000  Uiso   1.00
H258   H     1.57391   0.80967   0.86271   0.00000  Uiso   1.00
H259   H     1.54877   0.80589   0.77345   0.00000  Uiso   1.00
H260   H     0.10272   0.67011  -0.23329   0.00000  Uiso   1.00
H261   H    -0.02792   0.61843  -0.23243   0.00000  Uiso   1.00
H262   H     0.03501   0.55816  -0.26628   0.00000  Uiso   1.00
H263   H    -0.11647   0.49738  -0.12915   0.00000  Uiso   1.00
H264   H    -0.04783   0.48843  -0.06865   0.00000  Uiso   1.00
H265   H    -0.05179   0.44250  -0.14871   0.00000  Uiso   1.00
H266   H    -0.13225   0.67697   0.00850   0.00000  Uiso   1.00
H267   H    -0.08980   0.59178  -0.00589   0.00000  Uiso   1.00
H268   H    -0.14814   0.61096  -0.07386   0.00000  Uiso   1.00
H269   H     0.16898   0.82753   1.01853   0.00000  Uiso   1.00
H270   H     0.10205   0.73034   1.05310   0.00000  Uiso   1.00
H271   H     0.05800   0.80861   1.05423   0.00000  Uiso   1.00
H272   H     0.00740   0.59827   0.62564   0.00000  Uiso   1.00
H273   H    -0.02516   0.62063   0.55196   0.00000  Uiso   1.00
H274   H     0.10226   0.66375   0.58574   0.00000  Uiso   1.00
H275   H     0.45585   0.07027   0.18254   0.00000  Uiso   1.00
H276   H     0.47978   0.00739   0.11569   0.00000  Uiso   1.00
H277   H     0.36008  -0.03557   0.14765   0.00000  Uiso   1.00
H278   H     0.25669   1.08878   0.13091   0.00000  Uiso   1.00
H279   H     0.20357   0.97673   0.09595   0.00000  Uiso   1.00
H280   H     0.23525   1.06038   0.04035   0.00000  Uiso   1.00
H281   H     0.55550   0.28033   0.18878   0.00000  Uiso   1.00
H282   H     0.44840   0.18944   0.18289   0.00000  Uiso   1.00
H283   H     0.49827   0.24086   0.26419   0.00000  Uiso   1.00
H284   H     0.54218   0.40304   0.30580   0.00000  Uiso   1.00
H285   H     0.43329   0.39724   0.32468   0.00000  Uiso   1.00
H286   H     0.49588   0.46272   0.26752   0.00000  Uiso   1.00
H287   H     0.34992  -0.14581   0.28748   0.00000  Uiso   1.00
H288   H     0.28365  -0.17867   0.35045   0.00000  Uiso   1.00
H289   H     0.28941  -0.26126   0.29148   0.00000  Uiso   1.00
H290   H     0.30925   0.40839   0.24223   0.00000  Uiso   1.00
H291   H     0.21446   0.42726   0.26650   0.00000  Uiso   1.00
H292   H     0.32793   0.49571   0.30273   0.00000  Uiso   1.00
H293   H     0.17958   0.55201   0.21090   0.00000  Uiso   1.00
H294   H     0.28737   0.64484   0.18431   0.00000  Uiso   1.00
H295   H     0.28094   0.61959   0.26555   0.00000  Uiso   1.00
H296   H     0.26772   0.59894   0.37751   0.00000  Uiso   1.00
H297   H     0.22757   0.64327   0.44946   0.00000  Uiso   1.00
H298   H     0.17783   0.62791   0.36697   0.00000  Uiso   1.00
H299   H     0.55790   0.55009   0.91632   0.00000  Uiso   1.00
H300   H     0.54052   0.44959   0.92399   0.00000  Uiso   1.00
H301   H     0.62572   0.54033   0.98186   0.00000  Uiso   1.00
H302   H     0.31727   0.18532   0.54284   0.00000  Uiso   1.00
H303   H     0.20476   0.19301   0.52265   0.00000  Uiso   1.00
H304   H     0.24637   0.18641   0.60579   0.00000  Uiso   1.00
H305   H     0.31434   0.38076   0.48950   0.00000  Uiso   1.00
H306   H     0.42307   0.37356   0.48781   0.00000  Uiso   1.00
H307   H     0.41707   0.45661   0.54208   0.00000  Uiso   1.00
H308   H     0.20364   0.36319   0.61187   0.00000  Uiso   1.00
H309   H     0.32738   0.44631   0.64191   0.00000  Uiso   1.00
H310   H     0.27140   0.36023   0.68445   0.00000  Uiso   1.00
H311   H     0.42889   0.56822   0.48769   0.00000  Uiso   1.00
H312   H     0.36664   0.63236   0.49906   0.00000  Uiso   1.00
H313   H     0.36537   0.57812   0.55941   0.00000  Uiso   1.00
H314   H     0.53151   0.58416   0.60428   0.00000  Uiso   1.00
H315   H     0.59658   0.67982   0.66326   0.00000  Uiso   1.00
H316   H     0.65468   0.65791   0.59236   0.00000  Uiso   1.00
H317   H     0.43690   0.78042   0.61084   0.00000  Uiso   1.00
H318   H     0.56744   0.82812   0.64144   0.00000  Uiso   1.00
H319   H     0.46509   0.73299   0.66790   0.00000  Uiso   1.00
H320   H     0.29754   0.20567   0.70412   0.00000  Uiso   1.00
H321   H     0.25682   0.09623   0.71483   0.00000  Uiso   1.00
H322   H     0.36646   0.15292   0.67685   0.00000  Uiso   1.00
H323   H     0.52472   0.34208   0.83891   0.00000  Uiso   1.00
H324   H     0.45720   0.34791   0.76989   0.00000  Uiso   1.00
H325   H     0.53464   0.30369   0.75926   0.00000  Uiso   1.00
H326   H     0.50229   0.14882   0.78201   0.00000  Uiso   1.00
H327   H     0.39432   0.06238   0.79627   0.00000  Uiso   1.00
H328   H     0.47609   0.13892   0.86784   0.00000  Uiso   1.00
H329   H     0.33966   0.44620   0.78127   0.00000  Uiso   1.00
H330   H     0.37582   0.39913   0.83608   0.00000  Uiso   1.00
H331   H     0.45093   0.50998   0.83290   0.00000  Uiso   1.00
H332   H     0.49844   0.87378   0.10054   0.00000  Uiso   1.00
H333   H     0.40432   0.82569   0.14914   0.00000  Uiso   1.00
H334   H     0.37465   0.84317   0.07073   0.00000  Uiso   1.00
H335   H     0.32832   0.93341   0.00990   0.00000  Uiso   1.00
H336   H     0.42080   1.00503  -0.02896   0.00000  Uiso   1.00
H337   H     0.31515   1.00828  -0.04184   0.00000  Uiso   1.00
H338   H     0.24823   0.59163   1.00883   0.00000  Uiso   1.00
H339   H     0.24783   0.68803   0.99516   0.00000  Uiso   1.00
H340   H     0.22788   0.65221   1.07820   0.00000  Uiso   1.00
H341   H     0.45521   0.68191   0.95213   0.00000  Uiso   1.00
H342   H     0.55615   0.75484   1.01379   0.00000  Uiso   1.00
H343   H     0.49543   0.79275   0.96160   0.00000  Uiso   1.00
H344   H     0.72658   0.69856   0.45629   0.00000  Uiso   1.00
H345   H     0.75692   0.74679   0.53989   0.00000  Uiso   1.00
H346   H     0.83480   0.80066   0.47756   0.00000  Uiso   1.00
H347   H     0.19243   0.54919   0.58685   0.00000  Uiso   1.00
H348   H     0.12936   0.44497   0.56472   0.00000  Uiso   1.00
H349   H     0.10602   0.48741   0.63968   0.00000  Uiso   1.00
H350   H     0.32254   0.81726   0.60940   0.00000  Uiso   1.00
H351   H     0.29323   0.73151   0.54296   0.00000  Uiso   1.00
H352   H     0.22580   0.78598   0.54350   0.00000  Uiso   1.00
H353   H     0.39224   0.96434   0.44913   0.00000  Uiso   1.00
H354   H     0.38015   0.98736   0.53901   0.00000  Uiso   1.00
H355   H     0.28029   0.90643   0.48323   0.00000  Uiso   1.00
H356   H     0.48587   0.59987   0.28959   0.00000  Uiso   1.00
H357   H     0.51257   0.60861   0.38102   0.00000  Uiso   1.00
H358   H     0.60428   0.62721   0.33121   0.00000  Uiso   1.00
H359   H     0.48653   0.96276   0.69769   0.00000  Uiso   1.00
H360   H     0.49903   1.04646   0.66263   0.00000  Uiso   1.00
H361   H     0.59343   1.05378   0.71439   0.00000  Uiso   1.00
H362   H     0.55854   1.08872   0.54568   0.00000  Uiso   1.00
H363   H     0.63445   1.05260   0.49748   0.00000  Uiso   1.00
H364   H     0.68384   1.12586   0.56911   0.00000  Uiso   1.00
H365   H     0.89667   0.05912   0.13190   0.00000  Uiso   1.00
H366   H     0.92191  -0.00240   0.17586   0.00000  Uiso   1.00
H367   H     0.84158   0.04159   0.20491   0.00000  Uiso   1.00
H368   H     0.73473  -0.00873   0.04033   0.00000  Uiso   1.00
H369   H     0.66801  -0.00960   0.11313   0.00000  Uiso   1.00
H370   H     0.62672  -0.10624   0.05047   0.00000  Uiso   1.00
H371   H     0.75165   0.05481  -0.04877   0.00000  Uiso   1.00
H372   H     0.66487   0.09725  -0.08163   0.00000  Uiso   1.00
H373   H     0.65066   0.05884  -0.00543   0.00000  Uiso   1.00
H374   H     0.90689   0.09007   0.43331   0.00000  Uiso   1.00
H375   H     0.99311   0.19719   0.48079   0.00000  Uiso   1.00
H376   H     0.86931   0.14451   0.49225   0.00000  Uiso   1.00
H377   H     1.10113   0.22503   0.59405   0.00000  Uiso   1.00
H378   H     1.05760   0.14938   0.64804   0.00000  Uiso   1.00
H379   H     1.00639   0.20936   0.63730   0.00000  Uiso   1.00
H380   H     0.71334  -0.05183   0.37348   0.00000  Uiso   1.00
H381   H     0.73748   0.04436   0.42016   0.00000  Uiso   1.00
H382   H     0.76534   0.04065   0.33166   0.00000  Uiso   1.00
H383   H     0.49467  -0.05277   0.23248   0.00000  Uiso   1.00
H384   H     0.58512  -0.08856   0.23801   0.00000  Uiso   1.00
H385   H     0.61550   0.01994   0.22766   0.00000  Uiso   1.00
H386   H     0.64006   0.13078   0.39139   0.00000  Uiso   1.00
H387   H     0.51883   0.06935   0.39600   0.00000  Uiso   1.00
H388   H     0.55454   0.09716   0.31838   0.00000  Uiso   1.00
H389   H     0.81947   0.18722   0.77847   0.00000  Uiso   1.00
H390   H     0.79317   0.12131   0.70492   0.00000  Uiso   1.00
H391   H     0.92101   0.19164   0.73675   0.00000  Uiso   1.00
H392   H     0.71401   0.95218   0.83416   0.00000  Uiso   1.00
H393   H     0.68276   0.96013   0.74490   0.00000  Uiso   1.00
H394   H     0.66565   1.01704   0.82080   0.00000  Uiso   1.00
H395   H     0.68212   0.20658   0.86128   0.00000  Uiso   1.00
H396   H     0.75165   0.32066   0.86419   0.00000  Uiso   1.00
H397   H     0.61646   0.26678   0.86316   0.00000  Uiso   1.00
H398   H     0.74436   0.42261   1.05255   0.00000  Uiso   1.00
H399   H     0.66619   0.41355   0.97971   0.00000  Uiso   1.00
H400   H     0.79695   0.43797   0.97309   0.00000  Uiso   1.00
H401   H     0.64187   0.12020   0.15331   0.00000  Uiso   1.00
H402   H     0.63466   0.19846   0.11955   0.00000  Uiso   1.00
H403   H     0.65247   0.20908   0.21042   0.00000  Uiso   1.00
H404   H     0.85287   0.37648   0.20698   0.00000  Uiso   1.00
H405   H     0.80611   0.36403   0.12440   0.00000  Uiso   1.00
H406   H     0.92497   0.37713   0.14464   0.00000  Uiso   1.00
H407   H     0.79402   0.15206   0.24443   0.00000  Uiso   1.00
H408   H     0.87983   0.25815   0.26070   0.00000  Uiso   1.00
H409   H     0.90310   0.18717   0.20535   0.00000  Uiso   1.00
H410   H     0.64568   0.52046   0.10545   0.00000  Uiso   1.00
H411   H     0.64026   0.46590   0.17656   0.00000  Uiso   1.00
H412   H     0.57665   0.52229   0.17102   0.00000  Uiso   1.00
H413   H     0.83640   0.41631   0.34679   0.00000  Uiso   1.00
H414   H     0.73791   0.39107   0.28170   0.00000  Uiso   1.00
H415   H     0.73611   0.44573   0.36352   0.00000  Uiso   1.00
H416   H     0.98807   0.67562   0.36835   0.00000  Uiso   1.00
H417   H     0.98285   0.59133   0.40791   0.00000  Uiso   1.00
H418   H     0.89614   0.63522   0.42885   0.00000  Uiso   1.00
H419   H     0.69849   0.53932   0.27954   0.00000  Uiso   1.00
H420   H     0.79369   0.63154   0.26826   0.00000  Uiso   1.00
H421   H     0.74800   0.60940   0.34667   0.00000  Uiso   1.00
H422   H     0.67781   0.54168   0.69155   0.00000  Uiso   1.00
H423   H     0.60738   0.48099   0.75268   0.00000  Uiso   1.00
H424   H     0.56667   0.54577   0.69930   0.00000  Uiso   1.00
H425   H     0.58506   0.19214   0.66789   0.00000  Uiso   1.00
H426   H     0.64898   0.24519   0.74463   0.00000  Uiso   1.00
H427   H     0.70083   0.20203   0.67943   0.00000  Uiso   1.00
H428   H     1.02945   0.50222   0.14633   0.00000  Uiso   1.00
H429   H     1.05207   0.58598   0.09062   0.00000  Uiso   1.00
H430   H     0.93619   0.50271   0.09130   0.00000  Uiso   1.00
H431   H     1.14651   0.72828   0.19939   0.00000  Uiso   1.00
H432   H     1.13438   0.66557   0.25879   0.00000  Uiso   1.00
H433   H     1.08796   0.73495   0.27221   0.00000  Uiso   1.00
H434   H     0.82922   0.58642   0.12553   0.00000  Uiso   1.00
H435   H     0.94010   0.67565   0.11227   0.00000  Uiso   1.00
H436   H     0.87113   0.67641   0.18156   0.00000  Uiso   1.00
H437   H     0.64587   0.72130  -0.05200   0.00000  Uiso   1.00
H438   H     0.69977   0.69832   0.01782   0.00000  Uiso   1.00
H439   H     0.74744   0.70183  -0.06505   0.00000  Uiso   1.00
H440   H     0.81786   0.95528   0.94894   0.00000  Uiso   1.00
H441   H     0.68792   0.89401   0.94709   0.00000  Uiso   1.00
H442   H     0.76663   0.86907   0.89421   0.00000  Uiso   1.00
H443   H     0.64602   0.34211   0.42027   0.00000  Uiso   1.00
H444   H     0.53633   0.30290   0.45586   0.00000  Uiso   1.00
H445   H     0.64488   0.30233   0.50181   0.00000  Uiso   1.00
H446   H     0.79980   0.49687   0.57868   0.00000  Uiso   1.00
H447   H     0.78885   0.58106   0.54402   0.00000  Uiso   1.00
H448   H     0.82169   0.51374   0.49076   0.00000  Uiso   1.00
H449   H     1.03000   0.92641   0.20828   0.00000  Uiso   1.00
H450   H     0.94446   0.86049   0.14431   0.00000  Uiso   1.00
H451   H     0.99890   0.82009   0.19923   0.00000  Uiso   1.00
H452   H     0.57633   0.54355   0.48542   0.00000  Uiso   1.00
H453   H     0.54209   0.46093   0.41582   0.00000  Uiso   1.00
H454   H     0.65879   0.53481   0.42003   0.00000  Uiso   1.00
H455   H     0.97950   0.85379   0.35290   0.00000  Uiso   1.00
H456   H     0.92836   0.74711   0.30019   0.00000  Uiso   1.00
H457   H     0.84807   0.77721   0.35637   0.00000  Uiso   1.00
H458   H     0.93984   0.99466   0.29923   0.00000  Uiso   1.00
H459   H     0.85248   0.92235   0.35083   0.00000  Uiso   1.00
H460   H     0.81503   0.93885   0.27673   0.00000  Uiso   1.00
H461   H     1.06868   1.03472   0.54454   0.00000  Uiso   1.00
H462   H     1.02661   1.04173   0.46681   0.00000  Uiso   1.00
H463   H     0.94505   0.95244   0.51343   0.00000  Uiso   1.00
H464   H     0.69644   0.75351   0.83233   0.00000  Uiso   1.00
H465   H     0.74656   0.67799   0.82865   0.00000  Uiso   1.00
H466   H     0.69018   0.69010   0.75732   0.00000  Uiso   1.00
H467   H     0.77940   0.47906   0.71464   0.00000  Uiso   1.00
H468   H     0.84735   0.42231   0.73217   0.00000  Uiso   1.00
H469   H     0.73706   0.40279   0.77589   0.00000  Uiso   1.00
H470   H     0.90188   0.74920   0.68072   0.00000  Uiso   1.00
H471   H     0.87844   0.68616   0.74082   0.00000  Uiso   1.00
H472   H     0.99404   0.78541   0.74977   0.00000  Uiso   1.00
H473   H     1.03224   1.01588   0.65039   0.00000  Uiso   1.00
H474   H     0.94965   0.90491   0.61489   0.00000  Uiso   1.00
H475   H     1.02994   0.93135   0.68489   0.00000  Uiso   1.00
loop_
_geom_bond_atom_site_label_1
_geom_bond_atom_site_label_2
_geom_bond_distance
_geom_bond_site_symmetry_2
_ccdc_geom_bond_type
Si1    C52     1.818   .     S
Si1    O63     1.585   .     S
Si1    O61     1.622   1_554 S
Si1    O97     1.647   1_554 S
Si2    C53     1.878   .     S
Si2    O57     1.598   .     S
Si2    C54     1.872   1_545 S
Si2    C55     1.859   1_545 S
Si3    C56     1.864   .     S
Si3    O57     1.563   .     S
Si3    C58     1.867   .     S
Si3    O92     1.602   .     S
Si4    C59     1.896   .     S
Si4    O95     1.539   .     S
Si4    C60     1.870   1_545 S
Si4    O87     1.587   1_545 S
Si5    O61     1.603   .     S
Si5    O70     1.626   .     S
Si5    O140    1.647   1_455 S
Si5    O150    1.658   1_455 S
Si6    C62     1.866   .     S
Si6    O63     1.594   .     S
Si6    C64     1.936   .     S
Si6    O100    1.585   .     S
Si7    C65     1.934   .     S
Si7    O78     1.612   .     S
Si7    O73     1.610   1_554 S
Si7    O119    1.615   1_554 S
Si8    C66     1.861   .     S
Si8    O83     1.604   .     S
Si8    C67     1.873   1_455 S
Si8    O166    1.582   1_455 S
Si9    C68     1.877   .     S
Si9    C69     1.884   .     S
Si9    O84     1.610   .     S
Si9    C103    1.848   .     S
Si10   O70     1.593   .     S
Si10   C71     1.882   .     S
Si10   C72     1.905   .     S
Si10   O116    1.577   .     S
Si11   O73     1.575   .     S
Si11   C74     1.833   .     S
Si11   C75     1.934   1_455 S
Si11   C76     1.880   1_455 S
Si12   C77     1.861   .     S
Si12   O78     1.595   .     S
Si12   C79     1.897   .     S
Si12   O80     1.621   .     S
Si13   O80     1.585   .     S
Si13   C81     1.864   .     S
Si13   C82     1.851   1_554 S
Si13   O86     1.595   1_554 S
Si14   O83     1.559   .     S
Si14   O84     1.583   .     S
Si14   C85     1.828   .     S
Si14   C129    1.796   .     S
Si15   O86     1.611   .     S
Si15   O87     1.637   .     S
Si15   O175    1.625   1_455 S
Si15   O195    1.547   1_455 S
Si16   C88     1.859   .     S
Si16   O93     1.613   .     S
Si16   C89     1.846   1_545 S
Si16   C124    1.826   1_545 S
Si17   C90     1.853   .     S
Si17   C91     1.882   .     S
Si17   O92     1.612   .     S
Si17   O98     1.649   .     S
Si18   O93     1.580   .     S
Si18   O99     1.622   .     S
Si18   O96     1.631   1_554 S
Si18   O155    1.527   1_554 S
Si19   C94     1.861   .     S
Si19   O145    1.591   .     S
Si19   O131    1.589   1_545 S
Si19   O135    1.553   1_545 S
Si20   O95     1.606   .     S
Si20   O96     1.624   .     S
Si20   O97     1.647   .     S
Si20   O112    1.591   .     S
Si21   O98     1.588   .     S
Si21   O99     1.593   .     S
Si21   O104    1.620   .     S
Si21   C160    1.871   .     S
Si22   O100    1.597   .     S
Si22   C101    1.848   .     S
Si22   C102    1.827   .     S
Si22   O120    1.617   .     S
Si23   O104    1.590   .     S
Si23   O121    1.571   .     S
Si23   C105    1.898   1_554 S
Si23   O117    1.595   1_554 S
Si24   C106    1.859   .     S
Si24   C107    1.844   .     S
Si24   C108    1.869   .     S
Si24   O164    1.588   .     S
Si25   C109    1.833   .     S
Si25   C110    1.872   .     S
Si25   C111    1.876   .     S
Si25   O127    1.563   .     S
Si26   O112    1.605   .     S
Si26   C113    1.880   .     S
Si26   C114    1.888   .     S
Si26   C115    1.928   .     S
Si27   O116    1.634   .     S
Si27   O117    1.596   .     S
Si27   C118    1.913   .     S
Si27   O119    1.571   .     S
Si28   O120    1.610   .     S
Si28   O121    1.582   .     S
Si28   O122    1.589   .     S
Si28   O172    1.600   .     S
Si29   O122    1.578   .     S
Si29   C123    1.848   .     S
Si29   C125    1.929   1_554 S
Si29   C126    1.850   1_554 S
Si30   O127    1.599   .     S
Si30   C128    1.842   .     S
Si30   O134    1.578   .     S
Si30   O183    1.592   .     S
Si31   C130    1.852   .     S
Si31   O131    1.563   .     S
Si31   C132    1.867   .     S
Si31   O136    1.585   .     S
Si32   C133    1.897   .     S
Si32   O134    1.611   .     S
Si32   O135    1.567   .     S
Si32   O174    1.617   .     S
Si33   O136    1.620   .     S
Si33   C137    1.900   .     S
Si33   C138    1.890   .     S
Si33   O185    1.570   .     S
Si34   C139    1.904   .     S
Si34   C141    1.865   .     S
Si34   O173    1.614   1_545 S
Si34   O178    1.570   1_545 S
Si35   C142    1.938   .     S
Si35   O157    1.617   .     S
Si35   O140    1.650   1_554 S
Si35   O153    1.634   1_554 S
Si36   C143    1.805   .     S
Si36   C144    1.869   .     S
Si36   O184    1.601   1_545 S
Si36   C191    1.875   1_545 S
Si37   O145    1.577   .     S
Si37   C146    1.850   .     S
Si37   C147    1.875   .     S
Si37   C148    1.824   .     S
Si38   C149    1.836   .     S
Si38   O150    1.600   .     S
Si38   C151    1.936   1_545 S
Si38   O199    1.567   1_545 S
Si39   C152    1.867   .     S
Si39   O153    1.604   .     S
Si39   C154    1.874   .     S
Si39   O155    1.627   .     S
Si40   C156    1.778   .     S
Si40   O157    1.608   .     S
Si40   C158    1.911   .     S
Si40   C159    1.919   .     S
Si41   C161    1.895   .     S
Si41   C162    1.902   .     S
Si41   C163    1.832   .     S
Si41   O169    1.547   .     S
Si42   O164    1.608   .     S
Si42   C165    1.893   .     S
Si42   O167    1.584   .     S
Si42   O180    1.541   .     S
Si43   O166    1.595   .     S
Si43   O167    1.587   .     S
Si43   C168    1.926   .     S
Si43   C193    1.829   .     S
Si44   O169    1.626   .     S
Si44   C170    1.872   .     S
Si44   C171    1.880   .     S
Si44   C176    1.870   .     S
Si45   O172    1.635   .     S
Si45   O173    1.606   .     S
Si45   O174    1.611   .     S
Si45   O187    1.567   .     S
Si46   C177    1.820   .     S
Si46   O178    1.650   .     S
Si46   O175    1.568   1_554 S
Si46   C179    1.810   1_554 S
Si47   O180    1.594   .     S
Si47   C181    1.900   .     S
Si47   C182    1.942   .     S
Si47   C188    1.861   .     S
Si48   O183    1.602   .     S
Si48   O184    1.582   .     S
Si48   O185    1.588   .     S
Si48   O197    1.590   .     S
Si49   C186    1.876   .     S
Si49   O187    1.620   .     S
Si49   C189    1.808   .     S
Si49   C190    1.849   .     S
Si50   C192    1.876   .     S
Si50   C194    1.838   .     S
Si50   O195    1.602   .     S
Si50   O198    1.541   .     S
Si51   C196    1.869   .     S
Si51   O197    1.610   .     S
Si51   O198    1.610   .     S
Si51   O199    1.612   .     S
C52    H200    1.122   .     S
C52    H201    1.117   .     S
C52    H202    1.108   .     S
C53    H203    1.143   .     S
C53    H204    1.129   .     S
C53    H205    1.079   .     S
C54    H206    1.160   .     S
C54    H207    1.065   .     S
C54    H208    1.125   .     S
C54    Si2     1.872   1_565 S
C55    H209    1.078   .     S
C55    H210    1.121   .     S
C55    H211    1.086   .     S
C55    Si2     1.859   1_565 S
C56    H212    1.100   .     S
C56    H213    1.055   .     S
C56    H214    1.076   .     S
C58    H215    1.107   .     S
C58    H216    1.153   .     S
C58    H217    1.103   .     S
C59    H218    1.088   .     S
C59    H219    1.152   .     S
C59    H220    1.100   .     S
C60    H221    1.113   .     S
C60    H222    1.086   .     S
C60    H223    1.098   .     S
C60    Si4     1.870   1_565 S
O61    Si1     1.622   1_556 S
C62    H224    1.129   .     S
C62    H225    1.126   .     S
C62    H226    1.085   .     S
C64    H227    1.097   .     S
C64    H228    1.123   .     S
C64    H229    1.122   .     S
C65    H230    1.134   .     S
C65    H231    1.144   .     S
C65    H232    1.126   .     S
C66    H233    1.112   .     S
C66    H234    1.108   .     S
C66    H235    1.123   .     S
C67    H236    1.143   .     S
C67    H237    1.106   .     S
C67    H238    1.096   .     S
C67    Si8     1.873   1_655 S
C68    H239    1.140   .     S
C68    H240    1.106   .     S
C68    H241    1.107   .     S
C69    H242    1.156   .     S
C69    H243    1.107   .     S
C69    H244    1.069   .     S
C71    H245    1.067   .     S
C71    H246    1.133   .     S
C71    H247    1.128   .     S
C72    H248    1.080   .     S
C72    H249    1.208   .     S
C72    H250    1.089   .     S
O73    Si7     1.610   1_556 S
C74    H251    1.084   .     S
C74    H252    1.079   .     S
C74    H253    1.191   .     S
C75    H254    1.067   .     S
C75    H255    1.095   .     S
C75    H256    1.167   .     S
C75    Si11    1.934   1_655 S
C76    H257    1.131   .     S
C76    H258    1.117   .     S
C76    H259    1.170   .     S
C76    Si11    1.880   1_655 S
C77    H260    1.085   .     S
C77    H261    1.110   .     S
C77    H262    1.164   .     S
C79    H263    1.084   .     S
C79    H264    1.086   .     S
C79    H265    1.095   .     S
C81    H266    1.148   .     S
C81    H267    1.177   .     S
C81    H268    1.108   .     S
C82    H269    1.104   .     S
C82    H270    1.134   .     S
C82    H271    1.092   .     S
C82    Si13    1.851   1_556 S
C85    H272    1.044   .     S
C85    H273    1.107   .     S
C85    H274    1.109   .     S
O86    Si13    1.595   1_556 S
O87    Si4     1.587   1_565 S
C88    H275    1.115   .     S
C88    H276    1.112   .     S
C88    H277    1.102   .     S
C89    H278    1.119   .     S
C89    H279    1.148   .     S
C89    H280    1.128   .     S
C89    Si16    1.846   1_565 S
C90    H281    1.098   .     S
C90    H282    1.112   .     S
C90    H283    1.118   .     S
C91    H284    1.091   .     S
C91    H285    1.059   .     S
C91    H286    1.129   .     S
C94    H287    1.130   .     S
C94    H288    1.062   .     S
C94    H289    1.140   .     S
O96    Si18    1.631   1_556 S
O97    Si1     1.647   1_556 S
C101   H290    1.070   .     S
C101   H291    1.075   .     S
C101   H292    1.099   .     S
C102   H293    1.126   .     S
C102   H294    1.088   .     S
C102   H295    1.124   .     S
C103   H296    1.120   .     S
C103   H297    1.090   .     S
C103   H298    1.086   .     S
C105   H299    1.080   .     S
C105   H300    1.088   .     S
C105   H301    1.147   .     S
C105   Si23    1.898   1_556 S
C106   H302    1.086   .     S
C106   H303    1.167   .     S
C106   H304    1.121   .     S
C107   H305    1.082   .     S
C107   H306    1.081   .     S
C107   H307    1.099   .     S
C108   H308    1.139   .     S
C108   H309    1.123   .     S
C108   H310    1.083   .     S
C109   H311    1.095   .     S
C109   H312    1.131   .     S
C109   H313    1.058   .     S
C110   H314    1.118   .     S
C110   H315    1.128   .     S
C110   H316    1.119   .     S
C111   H317    1.122   .     S
C111   H318    1.131   .     S
C111   H319    1.083   .     S
C113   H320    1.113   .     S
C113   H321    1.119   .     S
C113   H322    1.083   .     S
C114   H323    1.088   .     S
C114   H324    1.131   .     S
C114   H325    1.051   .     S
C115   H326    1.037   .     S
C115   H327    1.113   .     S
C115   H328    1.158   .     S
O117   Si23    1.595   1_556 S
C118   H329    1.084   .     S
C118   H330    1.119   .     S
C118   H331    1.107   .     S
O119   Si7     1.615   1_556 S
C123   H332    1.114   .     S
C123   H333    1.141   .     S
C123   H334    1.062   .     S
C124   H335    1.111   .     S
C124   H336    1.053   .     S
C124   H337    1.102   .     S
C124   Si16    1.826   1_565 S
C125   H338    1.088   .     S
C125   H339    1.122   .     S
C125   H340    1.157   .     S
C125   Si29    1.929   1_556 S
C126   H341    1.104   .     S
C126   H342    1.131   .     S
C126   H343    1.107   .     S
C126   Si29    1.850   1_556 S
C128   H344    1.132   .     S
C128   H345    1.064   .     S
C128   H346    1.122   .     S
C129   H347    1.124   .     S
C129   H348    1.078   .     S
C129   H349    1.080   .     S
C130   H350    1.078   .     S
C130   H351    1.076   .     S
C130   H352    1.093   .     S
O131   Si19    1.589   1_565 S
C132   H353    1.077   .     S
C132   H354    1.108   .     S
C132   H355    1.111   .     S
C133   H356    1.133   .     S
C133   H357    1.149   .     S
C133   H358    1.075   .     S
O135   Si19    1.553   1_565 S
C137   H359    1.076   .     S
C137   H360    1.083   .     S
C137   H361    1.049   .     S
C138   H362    1.139   .     S
C138   H363    1.119   .     S
C138   H364    1.067   .     S
C139   H365    1.062   .     S
C139   H366    1.037   .     S
C139   H367    1.094   .     S
O140   Si5     1.647   1_655 S
O140   Si35    1.650   1_556 S
C141   H368    1.095   .     S
C141   H369    1.112   .     S
C141   H370    1.113   .     S
C142   H371    1.141   .     S
C142   H372    1.139   .     S
C142   H373    1.115   .     S
C143   H374    1.118   .     S
C143   H375    1.095   .     S
C143   H376    1.095   .     S
C144   H377    1.065   .     S
C144   H378    1.076   .     S
C144   H379    1.039   .     S
C146   H380    1.086   .     S
C146   H381    1.105   .     S
C146   H382    1.146   .     S
C147   H383    1.104   .     S
C147   H384    1.106   .     S
C147   H385    1.125   .     S
C148   H386    1.062   .     S
C148   H387    1.105   .     S
C148   H388    1.064   .     S
C149   H389    1.078   .     S
C149   H390    1.104   .     S
C149   H391    1.086   .     S
O150   Si5     1.658   1_655 S
C151   H392    1.100   .     S
C151   H393    1.133   .     S
C151   H394    1.084   .     S
C151   Si38    1.936   1_565 S
C152   H395    1.139   .     S
C152   H396    1.097   .     S
C152   H397    1.162   .     S
O153   Si35    1.634   1_556 S
C154   H398    1.118   .     S
C154   H399    1.110   .     S
C154   H400    1.164   .     S
O155   Si18    1.527   1_556 S
C156   H401    1.093   .     S
C156   H402    1.037   .     S
C156   H403    1.174   .     S
C158   H404    1.070   .     S
C158   H405    1.053   .     S
C158   H406    1.073   .     S
C159   H407    1.086   .     S
C159   H408    1.130   .     S
C159   H409    1.058   .     S
C160   H410    1.067   .     S
C160   H411    1.132   .     S
C160   H412    1.096   .     S
C161   H413    1.103   .     S
C161   H414    1.145   .     S
C161   H415    1.113   .     S
C162   H416    1.075   .     S
C162   H417    1.106   .     S
C162   H418    1.201   .     S
C163   H419    1.055   .     S
C163   H420    1.089   .     S
C163   H421    1.132   .     S
C165   H422    1.114   .     S
C165   H423    1.116   .     S
C165   H424    1.195   .     S
O166   Si8     1.582   1_655 S
C168   H425    1.075   .     S
C168   H426    1.133   .     S
C168   H427    1.076   .     S
C170   H428    1.122   .     S
C170   H429    1.139   .     S
C170   H430    1.098   .     S
C171   H431    1.115   .     S
C171   H432    1.068   .     S
C171   H433    1.118   .     S
O173   Si34    1.614   1_565 S
O175   Si15    1.625   1_655 S
O175   Si46    1.568   1_556 S
C176   H434    1.170   .     S
C176   H435    1.088   .     S
C176   H436    1.084   .     S
C177   H437    1.112   .     S
C177   H438    1.131   .     S
C177   H439    1.123   .     S
O178   Si34    1.570   1_565 S
C179   H440    1.083   .     S
C179   H441    1.137   .     S
C179   H442    1.067   .     S
C179   Si46    1.810   1_556 S
C181   H443    1.098   .     S
C181   H444    1.114   .     S
C181   H445    1.196   .     S
C182   H446    1.141   .     S
C182   H447    1.106   .     S
C182   H448    1.081   .     S
O184   Si36    1.601   1_565 S
C186   H449    1.069   .     S
C186   H450    1.110   .     S
C186   H451    1.138   .     S
C188   H452    1.148   .     S
C188   H453    1.099   .     S
C188   H454    1.137   .     S
C189   H455    1.174   .     S
C189   H456    1.112   .     S
C189   H457    1.130   .     S
C190   H458    1.157   .     S
C190   H459    1.108   .     S
C190   H460    1.047   .     S
C191   H461    1.068   .     S
C191   H462    1.126   .     S
C191   H463    1.147   .     S
C191   Si36    1.875   1_565 S
C192   H464    1.125   .     S
C192   H465    1.109   .     S
C192   H466    1.072   .     S
C193   H467    1.108   .     S
C193   H468    1.119   .     S
C193   H469    1.150   .     S
C194   H470    1.065   .     S
C194   H471    1.101   .     S
C194   H472    1.097   .     S
O195   Si15    1.547   1_655 S
C196   H473    1.127   .     S
C196   H474    1.107   .     S
C196   H475    1.112   .     S
O199   Si38    1.567   1_565 S
