data_333-7-11-18-15-30-6
_audit_creation_date              2025-03-07
_audit_creation_method            'Materials Studio'
_symmetry_space_group_name_H-M    'P1'
_symmetry_Int_Tables_number       1
_symmetry_cell_setting            triclinic
loop_
_symmetry_equiv_pos_as_xyz
  x,y,z
_cell_length_a                    17.5108
_cell_length_b                    19.4454
_cell_length_c                    19.7117
_cell_angle_alpha                 79.2832
_cell_angle_beta                  97.7121
_cell_angle_gamma                 123.6472
loop_
_atom_site_label
_atom_site_type_symbol
_atom_site_fract_x
_atom_site_fract_y
_atom_site_fract_z
_atom_site_U_iso_or_equiv
_atom_site_adp_type
_atom_site_occupancy
Si1    Si   -0.04585   0.21403   0.22525   0.00000  Uiso   1.00
Si2    Si    0.05302   0.03535   0.34817   0.00000  Uiso   1.00
Si3    Si    0.13729   0.19855   0.52604   0.00000  Uiso   1.00
Si4    Si    0.11537   0.21355   0.30183   0.00000  Uiso   1.00
Si5    Si    0.30477   0.18004   0.53081   0.00000  Uiso   1.00
Si6    Si    0.02610   0.33571   0.08481   0.00000  Uiso   1.00
Si7    Si    0.00525   0.48649   0.27534   0.00000  Uiso   1.00
Si8    Si   -0.12202   0.59487  -0.15035   0.00000  Uiso   1.00
Si9    Si    0.20769   0.33758   0.40202   0.00000  Uiso   1.00
Si10   Si   -0.02087   0.37525   0.52211   0.00000  Uiso   1.00
Si11   Si    0.15651   0.45744   0.32612   0.00000  Uiso   1.00
Si12   Si    0.05632   0.77284   0.83108   0.00000  Uiso   1.00
Si13   Si    0.03989   0.79762   0.32208   0.00000  Uiso   1.00
Si14   Si    0.37911   1.03397  -0.15257   0.00000  Uiso   1.00
Si15   Si   -0.01131   0.63444   0.58377   0.00000  Uiso   1.00
Si16   Si    0.17480   0.98758   0.30255   0.00000  Uiso   1.00
Si17   Si    0.19747   0.75758   0.77518   0.00000  Uiso   1.00
Si18   Si    0.18537   0.76711   0.62008   0.00000  Uiso   1.00
Si19   Si    0.48453   0.14905   0.14214   0.00000  Uiso   1.00
Si20   Si    0.25815   0.26229   0.20051   0.00000  Uiso   1.00
Si21   Si    0.52527   0.30273   0.04197   0.00000  Uiso   1.00
Si22   Si    0.52461   0.04288   0.45152   0.00000  Uiso   1.00
Si23   Si    0.54872  -0.03615   0.74353   0.00000  Uiso   1.00
Si24   Si    0.64760   0.14699   0.67091   0.00000  Uiso   1.00
Si25   Si    0.16960   0.51966   0.04510   0.00000  Uiso   1.00
Si26   Si    0.53513   0.67847   0.12964   0.00000  Uiso   1.00
Si27   Si    0.42164   0.48580   0.65016   0.00000  Uiso   1.00
Si28   Si    0.47381   0.40598   0.77589   0.00000  Uiso   1.00
Si29   Si    0.35349   0.66362   0.08007   0.00000  Uiso   1.00
Si30   Si    0.29326   1.01786   0.19195   0.00000  Uiso   1.00
Si31   Si    0.38026   0.81120  -0.01403   0.00000  Uiso   1.00
Si32   Si    0.56654   0.63693   0.56486   0.00000  Uiso   1.00
Si33   Si    0.30849   0.70160   0.62812   0.00000  Uiso   1.00
Si34   Si    0.52021   0.72425   0.84336   0.00000  Uiso   1.00
Si35   Si    0.37763   0.87830   0.83638   0.00000  Uiso   1.00
Si36   Si    0.50098   0.80496   0.69697   0.00000  Uiso   1.00
Si37   Si    0.88018   0.06506   0.14270   0.00000  Uiso   1.00
Si38   Si    0.64684   0.13637   0.20012   0.00000  Uiso   1.00
Si39   Si    0.80138   0.07777  -0.00589   0.00000  Uiso   1.00
Si40   Si    0.70327   0.13789   0.53473   0.00000  Uiso   1.00
Si41   Si    0.80004   0.17304   0.31134   0.00000  Uiso   1.00
Si42   Si    1.12490   0.17889   0.68291   0.00000  Uiso   1.00
Si43   Si    0.71463   0.44745   0.23844   0.00000  Uiso   1.00
Si44   Si    0.82427   0.28558   0.42197   0.00000  Uiso   1.00
Si45   Si    0.67065   0.43312   0.52384   0.00000  Uiso   1.00
Si46   Si    0.85304   0.45796   0.35868   0.00000  Uiso   1.00
Si47   Si    0.78966   0.59820   0.12510   0.00000  Uiso   1.00
Si48   Si    0.85859   0.56255   0.45947   0.00000  Uiso   1.00
Si49   Si    0.63313   0.80529   0.61235   0.00000  Uiso   1.00
Si50   Si    0.85215   0.71296   0.38469   0.00000  Uiso   1.00
Si51   Si    0.79720   0.83270   0.70021   0.00000  Uiso   1.00
C52    C     0.05661  -0.00657   0.43991   0.00000  Uiso   1.00
C53    C     1.01277   0.12327   0.51140   0.00000  Uiso   1.00
O54    O     0.03614   0.23236   0.27657   0.00000  Uiso   1.00
O55    O     0.06977   0.12379   0.34329   0.00000  Uiso   1.00
O56    O     0.20153   0.16615   0.52128   0.00000  Uiso   1.00
C57    C     0.28862   0.08081   0.54852   0.00000  Uiso   1.00
C58    C     0.37507   0.25476   0.59292   0.00000  Uiso   1.00
C59    C     0.37084   0.23514   0.44998   0.00000  Uiso   1.00
O60    O    -0.00064   0.29067   0.16505   0.00000  Uiso   1.00
C61    C     0.06874   0.28628   0.04391   0.00000  Uiso   1.00
C62    C     0.09305   0.59488   0.23594   0.00000  Uiso   1.00
C63    C     0.92054   0.41867   0.21162   0.00000  Uiso   1.00
C64    C    -0.07035   0.32754   0.02721   0.00000  Uiso   1.00
C65    C    -0.06350   0.54911  -0.09343   0.00000  Uiso   1.00
C66    C    -0.19199   0.52878  -0.21908   0.00000  Uiso   1.00
C67    C    -0.19694   0.60299   0.90097   0.00000  Uiso   1.00
O68    O     0.16882   0.28300   0.47583   0.00000  Uiso   1.00
O69    O     0.19154   0.28132   0.34837   0.00000  Uiso   1.00
C70    C     0.07704   0.35409   0.54526   0.00000  Uiso   1.00
C71    C     0.04702   0.49074   0.49328   0.00000  Uiso   1.00
C72    C     0.90491   0.33710   0.59733   0.00000  Uiso   1.00
O73    O     0.05574   0.44127   0.31257   0.00000  Uiso   1.00
O74    O     0.15322   0.38179   0.37873   0.00000  Uiso   1.00
C75    C     0.24400   0.55457   0.36356   0.00000  Uiso   1.00
O76    O    -0.03889   0.68604   0.81791   0.00000  Uiso   1.00
C77    C     1.05951   0.78991   0.92448   0.00000  Uiso   1.00
C78    C     1.05674   0.85781   0.77008   0.00000  Uiso   1.00
C79    C     0.04523   0.74236   0.26090   0.00000  Uiso   1.00
C80    C     0.29242   1.04070  -0.11615   0.00000  Uiso   1.00
C81    C     0.50321   1.10648  -0.12055   0.00000  Uiso   1.00
C82    C     0.37260   1.06362   0.75236   0.00000  Uiso   1.00
C83    C    -0.05443   0.68301   0.62589   0.00000  Uiso   1.00
C84    C    -0.06488   0.96157   0.31543   0.00000  Uiso   1.00
O85    O     0.09659   0.89405   0.29051   0.00000  Uiso   1.00
C86    C     0.25338   0.99507   0.37888   0.00000  Uiso   1.00
O87    O     0.12774   1.03623   0.31169   0.00000  Uiso   1.00
O88    O     0.14175   0.77328   0.82237   0.00000  Uiso   1.00
C89    C     0.18088   0.65668   0.81636   0.00000  Uiso   1.00
O90    O     0.09899   0.69609   0.58167   0.00000  Uiso   1.00
O91    O     0.15980   0.75711   0.69751   0.00000  Uiso   1.00
C92    C     0.21210   0.87542   0.57720   0.00000  Uiso   1.00
C93    C     0.23707   0.20612   0.12592   0.00000  Uiso   1.00
C94    C     0.34813   0.25595   0.25459   0.00000  Uiso   1.00
C95    C     0.29528   0.37066   0.17250   0.00000  Uiso   1.00
O96    O     0.16836   0.21974   0.23986   0.00000  Uiso   1.00
O97    O     0.52173   0.24343   0.10957   0.00000  Uiso   1.00
C98    C     0.42978   0.24631  -0.02083   0.00000  Uiso   1.00
C99    C     0.64204   0.35170   1.00574   0.00000  Uiso   1.00
C100   C     0.51768   0.38267   1.06782   0.00000  Uiso   1.00
C101   C     0.53761   0.10749   0.36602   0.00000  Uiso   1.00
C102   C     0.45342   0.92780   0.44321   0.00000  Uiso   1.00
C103   C     0.66033  -0.01935   0.78024   0.00000  Uiso   1.00
C104   C     0.60842   0.22020   0.66974   0.00000  Uiso   1.00
O105   O     0.57228   0.05032   0.69465   0.00000  Uiso   1.00
C106   C     0.75658   0.18521   0.73026   0.00000  Uiso   1.00
O107   O     0.10711   0.42835   0.08572   0.00000  Uiso   1.00
C108   C     0.10871   0.57698   0.04720   0.00000  Uiso   1.00
C109   C     0.17752   0.51244  -0.04667   0.00000  Uiso   1.00
C110   C     0.20085   0.46041   0.24160   0.00000  Uiso   1.00
C111   C     0.63394   0.73580   0.07230   0.00000  Uiso   1.00
C112   C     0.55728   0.72630   1.21188   0.00000  Uiso   1.00
C113   C     0.51344   0.57144   1.16213   0.00000  Uiso   1.00
C114   C     0.33743   0.41906   0.40198   0.00000  Uiso   1.00
C115   C     0.32844   0.43673   0.58150   0.00000  Uiso   1.00
C116   C     0.39933   0.54126   0.70317   0.00000  Uiso   1.00
O117   O     0.43458   0.42045   0.70339   0.00000  Uiso   1.00
C118   C     0.48311   0.31745   0.78270   0.00000  Uiso   1.00
O119   O     0.26989   0.56940   0.08022   0.00000  Uiso   1.00
O120   O     0.45051   0.67219   0.08270   0.00000  Uiso   1.00
C121   C     0.34358   0.69568   0.16284   0.00000  Uiso   1.00
C122   C     0.21572   0.97645   0.11324   0.00000  Uiso   1.00
C123   C     0.32173   0.94067   0.23529   0.00000  Uiso   1.00
O124   O     0.38607   1.10563   0.17380   0.00000  Uiso   1.00
O125   O     0.23947   1.03156   0.23879   0.00000  Uiso   1.00
O126   O     0.34525   0.71852   0.01758   0.00000  Uiso   1.00
C127   C     0.29495   0.83263   0.01029   0.00000  Uiso   1.00
C128   C     0.46651   1.08586   0.07085   0.00000  Uiso   1.00
C129   C     0.49682   0.89116   1.01660   0.00000  Uiso   1.00
O130   O     0.51601   0.55044   0.61452   0.00000  Uiso   1.00
C131   C     0.68416   0.66436   0.54860   0.00000  Uiso   1.00
C132   C     0.50441   0.62244   0.47809   0.00000  Uiso   1.00
C133   C     0.22176   0.59611   0.66378   0.00000  Uiso   1.00
C134   C     0.33950   0.69267   0.54570   0.00000  Uiso   1.00
C135   C     0.45614   1.05000   0.50895   0.00000  Uiso   1.00
O136   O     0.27241   0.76256   0.61870   0.00000  Uiso   1.00
C137   C     0.40058   0.63457   0.84674   0.00000  Uiso   1.00
C138   C     0.39347   0.38679   0.84227   0.00000  Uiso   1.00
C139   C     0.58889   0.67463   0.86845   0.00000  Uiso   1.00
C140   C     0.55009   0.79286   0.90692   0.00000  Uiso   1.00
O141   O     0.30525   0.82763   0.78040   0.00000  Uiso   1.00
O142   O     0.37116   0.81484   0.90503   0.00000  Uiso   1.00
O143   O     0.48169   0.94169   0.80357   0.00000  Uiso   1.00
O144   O     0.35506   0.94058   0.85949   0.00000  Uiso   1.00
O145   O     0.39789   0.73207   0.67981   0.00000  Uiso   1.00
O146   O     0.53477   0.77086   0.76658   0.00000  Uiso   1.00
O147   O     0.50779   0.88769   0.70058   0.00000  Uiso   1.00
O148   O     0.90261   0.12689   0.19652   0.00000  Uiso   1.00
C149   C     0.78007   0.95879   0.17799   0.00000  Uiso   1.00
C150   C     0.98153   1.05941   0.13991   0.00000  Uiso   1.00
O151   O     0.56071   0.14769   0.19652   0.00000  Uiso   1.00
C152   C     0.60301   0.02388   0.19211   0.00000  Uiso   1.00
C153   C     0.72812   0.20041   0.13024   0.00000  Uiso   1.00
C154   C     0.76317  -0.03002   0.98024   0.00000  Uiso   1.00
O155   O     0.85102   0.09691   0.06967   0.00000  Uiso   1.00
C156   C     0.89168   0.15331  -0.07117   0.00000  Uiso   1.00
C157   C     0.70565   0.09870   0.96852   0.00000  Uiso   1.00
O158   O     0.61996   0.06892   0.49220   0.00000  Uiso   1.00
O159   O     0.66882   0.15438   0.59536   0.00000  Uiso   1.00
O160   O     0.88331   0.21939   0.26196   0.00000  Uiso   1.00
O161   O     0.70754   0.15808   0.27041   0.00000  Uiso   1.00
C162   C     0.78496   0.06978   0.34877   0.00000  Uiso   1.00
O163   O     1.14277   0.21583   0.60185   0.00000  Uiso   1.00
C164   C     0.78691   0.11013   0.56641   0.00000  Uiso   1.00
C165   C     1.13122   0.08306   0.70748   0.00000  Uiso   1.00
C166   C     1.21326   0.25029   0.74027   0.00000  Uiso   1.00
C167   C     1.01153   0.15814   0.70195   0.00000  Uiso   1.00
C168   C     0.67334   0.34125   0.22192   0.00000  Uiso   1.00
C169   C     0.61524   0.44385   0.26654   0.00000  Uiso   1.00
O170   O     0.75119   0.22414   0.48274   0.00000  Uiso   1.00
O171   O     0.82720   0.22945   0.37021   0.00000  Uiso   1.00
O172   O     0.92006   0.32773   0.46087   0.00000  Uiso   1.00
C173   C     0.59963   0.46247   0.45837   0.00000  Uiso   1.00
C174   C     0.64393   0.33184   0.50345   0.00000  Uiso   1.00
C175   C     0.64815   0.42820   0.61521   0.00000  Uiso   1.00
C176   C     0.58360   0.50170   0.79650   0.00000  Uiso   1.00
O177   O     0.95214   0.49586   0.32754   0.00000  Uiso   1.00
O178   O     0.78526   0.47311   0.30248   0.00000  Uiso   1.00
O179   O     0.80598   0.35692   0.38322   0.00000  Uiso   1.00
O180   O     0.75358   0.50956   0.16882   0.00000  Uiso   1.00
C181   C     0.90339   0.64049   0.09346   0.00000  Uiso   1.00
C182   C     0.70516   0.58345   0.05001   0.00000  Uiso   1.00
C183   C     0.79857   0.66921   0.18403   0.00000  Uiso   1.00
C184   C     1.09625   0.78169   0.40429   0.00000  Uiso   1.00
O185   O     0.77325   0.50176   0.50958   0.00000  Uiso   1.00
O186   O     0.87329   0.50635   0.42168   0.00000  Uiso   1.00
O187   O     0.94720   0.61842   0.50717   0.00000  Uiso   1.00
O188   O     0.57199   0.71455   0.58830   0.00000  Uiso   1.00
C189   C     0.68497   0.87883   0.53178   0.00000  Uiso   1.00
O190   O     0.57002   0.82699   0.63854   0.00000  Uiso   1.00
O191   O     0.93472   0.76701   0.32906   0.00000  Uiso   1.00
C192   C     0.75384   0.71580   0.34408   0.00000  Uiso   1.00
O193   O     0.82954   0.61770   0.40781   0.00000  Uiso   1.00
C194   C     0.88682   0.76749   0.46145   0.00000  Uiso   1.00
C195   C     0.95344   0.53500   0.63968   0.00000  Uiso   1.00
C196   C     0.86900   0.87927   0.62185   0.00000  Uiso   1.00
O197   O     0.69722   0.80497   0.67492   0.00000  Uiso   1.00
C198   C     0.79558   0.73814   0.74057   0.00000  Uiso   1.00
C199   C     0.84580   0.91352   0.76169   0.00000  Uiso   1.00
H200   H     0.12279   0.02470   0.47022   0.00000  Uiso   1.00
H201   H     0.03056  -0.07402   0.44092   0.00000  Uiso   1.00
H202   H    -0.00245  -0.01577   0.46457   0.00000  Uiso   1.00
H203   H     0.96370   0.14127   0.52093   0.00000  Uiso   1.00
H204   H     0.99209   0.06288   0.54592   0.00000  Uiso   1.00
H205   H     1.00010   0.11018   0.45692   0.00000  Uiso   1.00
H206   H     0.23391   0.03924   0.58536   0.00000  Uiso   1.00
H207   H     0.36014   0.09484   0.56616   0.00000  Uiso   1.00
H208   H     0.26947   0.05072   0.50438   0.00000  Uiso   1.00
H209   H     0.39444   0.31614   0.56871   0.00000  Uiso   1.00
H210   H     0.43545   0.24566   0.60825   0.00000  Uiso   1.00
H211   H     0.33499   0.23721   0.64066   0.00000  Uiso   1.00
H212   H     0.41600   0.21580   0.44167   0.00000  Uiso   1.00
H213   H     0.41670   0.30083   0.45588   0.00000  Uiso   1.00
H214   H     0.33173   0.23705   0.40424   0.00000  Uiso   1.00
H215   H     0.01589   0.21916   0.05179   0.00000  Uiso   1.00
H216   H     0.12877   0.29521   0.07549   0.00000  Uiso   1.00
H217   H     0.08417   0.30421  -0.01200   0.00000  Uiso   1.00
H218   H     0.14806   0.59212   0.21307   0.00000  Uiso   1.00
H219   H     0.13015   0.63372   0.28002   0.00000  Uiso   1.00
H220   H     0.06934   0.62931   0.19743   0.00000  Uiso   1.00
H221   H     0.86374   0.36440   0.23585   0.00000  Uiso   1.00
H222   H     0.95366   0.40006   0.17995   0.00000  Uiso   1.00
H223   H     0.90283   0.45997   0.17085   0.00000  Uiso   1.00
H224   H    -0.04209   0.36330  -0.02219   0.00000  Uiso   1.00
H225   H    -0.10991   0.34574   0.04955   0.00000  Uiso   1.00
H226   H    -0.11741   0.26362   0.02035   0.00000  Uiso   1.00
H227   H    -0.00677   0.55847  -0.12013   0.00000  Uiso   1.00
H228   H    -0.11469   0.48520  -0.07380   0.00000  Uiso   1.00
H229   H    -0.03322   0.58916  -0.05215   0.00000  Uiso   1.00
H230   H    -0.23640   0.54384  -0.25547   0.00000  Uiso   1.00
H231   H    -0.23194   0.46044  -0.19458   0.00000  Uiso   1.00
H232   H    -0.13687   0.53236  -0.24689   0.00000  Uiso   1.00
H233   H    -0.21563   0.55567   0.94283   0.00000  Uiso   1.00
H234   H    -0.25298   0.60181   0.87001   0.00000  Uiso   1.00
H235   H    -0.15518   0.66273   0.92036   0.00000  Uiso   1.00
H236   H     0.12065   0.37185   0.50243   0.00000  Uiso   1.00
H237   H     0.04295   0.28859   0.57085   0.00000  Uiso   1.00
H238   H     0.12513   0.39487   0.58335   0.00000  Uiso   1.00
H239   H     0.00711   0.51670   0.50061   0.00000  Uiso   1.00
H240   H     0.07280   0.50818   0.44012   0.00000  Uiso   1.00
H241   H     0.10464   0.52043   0.52919   0.00000  Uiso   1.00
H242   H     0.94752   0.37382   0.64361   0.00000  Uiso   1.00
H243   H     0.86588   0.27281   0.60754   0.00000  Uiso   1.00
H244   H     0.85590   0.35716   0.58422   0.00000  Uiso   1.00
H245   H     0.21823   0.59555   0.35349   0.00000  Uiso   1.00
H246   H     0.30575   0.58985   0.33431   0.00000  Uiso   1.00
H247   H     0.26815   0.55132   0.41798   0.00000  Uiso   1.00
H248   H     1.11563   0.85340   0.93529   0.00000  Uiso   1.00
H249   H     1.07199   0.74971   0.96006   0.00000  Uiso   1.00
H250   H     0.99575   0.78288   0.93478   0.00000  Uiso   1.00
H251   H     0.98548   0.82675   0.75133   0.00000  Uiso   1.00
H252   H     1.10085   0.88321   0.72803   0.00000  Uiso   1.00
H253   H     1.06480   0.90841   0.79127   0.00000  Uiso   1.00
H254   H    -0.00276   0.73586   0.21448   0.00000  Uiso   1.00
H255   H     0.02660   0.67712   0.28691   0.00000  Uiso   1.00
H256   H     0.12136   0.77730   0.24685   0.00000  Uiso   1.00
H257   H     0.27401   1.00481  -0.06154   0.00000  Uiso   1.00
H258   H     0.22977   1.01542  -0.14848   0.00000  Uiso   1.00
H259   H     0.31538   1.10295  -0.11768   0.00000  Uiso   1.00
H260   H     0.50040   1.12166  -0.07270   0.00000  Uiso   1.00
H261   H     0.54358   1.16757  -0.15837   0.00000  Uiso   1.00
H262   H     0.53502   1.07189  -0.11896   0.00000  Uiso   1.00
H263   H     0.43347   1.06731   0.73380   0.00000  Uiso   1.00
H264   H     0.38666   1.12734   0.74064   0.00000  Uiso   1.00
H265   H     0.30428   1.01552   0.73536   0.00000  Uiso   1.00
H266   H    -0.13001   0.64823   0.62641   0.00000  Uiso   1.00
H267   H    -0.02932   0.74039   0.59183   0.00000  Uiso   1.00
H268   H    -0.02214   0.69410   0.67613   0.00000  Uiso   1.00
H269   H    -0.06658   0.91115   0.29525   0.00000  Uiso   1.00
H270   H    -0.08542   0.99557   0.28266   0.00000  Uiso   1.00
H271   H    -0.10887   0.93272   0.35898   0.00000  Uiso   1.00
H272   H     0.30702   1.06230   0.38608   0.00000  Uiso   1.00
H273   H     0.28856   0.96820   0.36617   0.00000  Uiso   1.00
H274   H     0.21132   0.95521   0.42067   0.00000  Uiso   1.00
H275   H     0.18130   0.65347   0.87443   0.00000  Uiso   1.00
H276   H     0.24117   0.65296   0.80677   0.00000  Uiso   1.00
H277   H     0.10570   0.60286   0.80295   0.00000  Uiso   1.00
H278   H     0.25340   0.89754   0.53183   0.00000  Uiso   1.00
H279   H     0.24335   0.92069   0.61696   0.00000  Uiso   1.00
H280   H     0.15071   0.87663   0.55566   0.00000  Uiso   1.00
H281   H     0.18550   0.13751   0.13945   0.00000  Uiso   1.00
H282   H     0.30118   0.21298   0.12041   0.00000  Uiso   1.00
H283   H     0.21968   0.23268   0.07917   0.00000  Uiso   1.00
H284   H     0.32852   0.19370   0.27258   0.00000  Uiso   1.00
H285   H     0.35277   0.28281   0.29913   0.00000  Uiso   1.00
H286   H     0.41748   0.28962   0.23201   0.00000  Uiso   1.00
H287   H     0.33915   0.41392   0.21071   0.00000  Uiso   1.00
H288   H     0.23575   0.37618   0.16356   0.00000  Uiso   1.00
H289   H     0.33791   0.39329   0.12418   0.00000  Uiso   1.00
H290   H     0.37071   0.20204   0.00984   0.00000  Uiso   1.00
H291   H     0.44899   0.21077  -0.04960   0.00000  Uiso   1.00
H292   H     0.41626   0.28582  -0.05700   0.00000  Uiso   1.00
H293   H     0.63367   0.37073   0.95173   0.00000  Uiso   1.00
H294   H     0.66737   0.31157   1.01650   0.00000  Uiso   1.00
H295   H     0.69759   0.40962   1.02608   0.00000  Uiso   1.00
H296   H     0.51759   0.42716   1.02133   0.00000  Uiso   1.00
H297   H     0.57540   0.41927   1.10309   0.00000  Uiso   1.00
H298   H     0.45247   0.35553   1.09331   0.00000  Uiso   1.00
H299   H     0.54036   0.07840   0.32621   0.00000  Uiso   1.00
H300   H     0.60195   0.16355   0.37563   0.00000  Uiso   1.00
H301   H     0.48219   0.12013   0.35310   0.00000  Uiso   1.00
H302   H     0.46616   0.92090   0.39262   0.00000  Uiso   1.00
H303   H     0.38219   0.89045   0.45052   0.00000  Uiso   1.00
H304   H     0.48227   0.90109   0.48341   0.00000  Uiso   1.00
H305   H     0.68275   0.02193   0.81669   0.00000  Uiso   1.00
H306   H     0.70276  -0.00300   0.73783   0.00000  Uiso   1.00
H307   H     0.64308  -0.07925   0.81729   0.00000  Uiso   1.00
H308   H     0.53789   0.19590   0.64091   0.00000  Uiso   1.00
H309   H     0.66476   0.28126   0.65051   0.00000  Uiso   1.00
H310   H     0.59706   0.22706   0.72458   0.00000  Uiso   1.00
H311   H     0.78454   0.14608   0.73013   0.00000  Uiso   1.00
H312   H     0.73997   0.18372   0.78522   0.00000  Uiso   1.00
H313   H     0.81302   0.24777   0.71378   0.00000  Uiso   1.00
H314   H     0.12235   0.61748  -0.00073   0.00000  Uiso   1.00
H315   H     0.14370   0.61797   0.09190   0.00000  Uiso   1.00
H316   H     0.03605   0.53277   0.05051   0.00000  Uiso   1.00
H317   H     0.19877   0.47014  -0.04430   0.00000  Uiso   1.00
H318   H     0.23705   0.57211  -0.06772   0.00000  Uiso   1.00
H319   H     0.11510   0.49184  -0.08400   0.00000  Uiso   1.00
H320   H     0.18838   0.50109   0.20002   0.00000  Uiso   1.00
H321   H     0.16010   0.39757   0.22135   0.00000  Uiso   1.00
H322   H     0.27825   0.48225   0.24915   0.00000  Uiso   1.00
H323   H     0.62128   0.70808   0.02529   0.00000  Uiso   1.00
H324   H     0.69701   0.74447   0.10277   0.00000  Uiso   1.00
H325   H     0.65239   0.80255   0.05318   0.00000  Uiso   1.00
H326   H     0.50022   0.68246   1.24950   0.00000  Uiso   1.00
H327   H     0.56494   0.78880   1.19841   0.00000  Uiso   1.00
H328   H     0.62363   0.73423   1.23259   0.00000  Uiso   1.00
H329   H     0.56670   0.56537   1.18791   0.00000  Uiso   1.00
H330   H     0.48818   0.53711   1.11711   0.00000  Uiso   1.00
H331   H     0.46226   0.54410   1.20181   0.00000  Uiso   1.00
H332   H     0.37137   0.39368   0.44168   0.00000  Uiso   1.00
H333   H     0.34724   0.47321   0.41787   0.00000  Uiso   1.00
H334   H     0.36499   0.43691   0.35024   0.00000  Uiso   1.00
H335   H     0.33031   0.39698   0.54610   0.00000  Uiso   1.00
H336   H     0.33193   0.49167   0.54587   0.00000  Uiso   1.00
H337   H     0.26075   0.39645   0.60751   0.00000  Uiso   1.00
H338   H     0.33212   0.49086   0.72897   0.00000  Uiso   1.00
H339   H     0.39407   0.59108   0.66719   0.00000  Uiso   1.00
H340   H     0.45342   0.56615   0.74555   0.00000  Uiso   1.00
H341   H     0.41715   0.26209   0.76614   0.00000  Uiso   1.00
H342   H     0.50284   0.29856   0.83397   0.00000  Uiso   1.00
H343   H     0.53503   0.33232   0.74447   0.00000  Uiso   1.00
H344   H     0.37048   0.66825   0.20576   0.00000  Uiso   1.00
H345   H     0.27189   0.67338   0.17163   0.00000  Uiso   1.00
H346   H     0.38409   0.76507   0.15881   0.00000  Uiso   1.00
H347   H     0.26068   0.98135   0.07434   0.00000  Uiso   1.00
H348   H     0.19376   1.02232   0.09872   0.00000  Uiso   1.00
H349   H     0.15766   0.91165   0.13513   0.00000  Uiso   1.00
H350   H     0.26312   0.88082   0.25839   0.00000  Uiso   1.00
H351   H     0.37779   0.96793   0.27809   0.00000  Uiso   1.00
H352   H     0.34184   0.92080   0.19508   0.00000  Uiso   1.00
H353   H     0.22769   0.79220  -0.01283   0.00000  Uiso   1.00
H354   H     0.30848   0.89597  -0.00615   0.00000  Uiso   1.00
H355   H     0.28964   0.81459   0.06706   0.00000  Uiso   1.00
H356   H     0.53643   1.11694   0.05497   0.00000  Uiso   1.00
H357   H     0.41691   1.09261   0.03405   0.00000  Uiso   1.00
H358   H     0.43730   1.01987   0.09466   0.00000  Uiso   1.00
H359   H     0.54466   0.87929   1.00244   0.00000  Uiso   1.00
H360   H     0.50750   0.89206   1.07439   0.00000  Uiso   1.00
H361   H     0.51772   0.95346   0.99534   0.00000  Uiso   1.00
H362   H     0.73637   0.69835   0.59019   0.00000  Uiso   1.00
H363   H     0.71294   0.71087   0.50279   0.00000  Uiso   1.00
H364   H     0.69532   0.61496   0.53929   0.00000  Uiso   1.00
H365   H     0.43167   0.59628   0.47911   0.00000  Uiso   1.00
H366   H     0.51389   0.58111   0.45509   0.00000  Uiso   1.00
H367   H     0.53561   0.68082   0.44028   0.00000  Uiso   1.00
H368   H     0.23258   0.54912   0.65315   0.00000  Uiso   1.00
H369   H     0.14893   0.57523   0.64201   0.00000  Uiso   1.00
H370   H     0.21644   0.58929   0.72010   0.00000  Uiso   1.00
H371   H     0.38011   0.66544   0.55754   0.00000  Uiso   1.00
H372   H     0.37813   0.75520   0.51491   0.00000  Uiso   1.00
H373   H     0.27372   0.64921   0.51974   0.00000  Uiso   1.00
H374   H     0.38346   1.01792   0.49585   0.00000  Uiso   1.00
H375   H     0.48859   1.11860   0.51081   0.00000  Uiso   1.00
H376   H     0.46606   1.02217   0.56284   0.00000  Uiso   1.00
H377   H     0.40127   0.58577   0.88267   0.00000  Uiso   1.00
H378   H     0.36596   0.61114   0.79578   0.00000  Uiso   1.00
H379   H     0.36156   0.65437   0.87333   0.00000  Uiso   1.00
H380   H     0.43678   0.41806   0.88601   0.00000  Uiso   1.00
H381   H     0.33160   0.31131   0.85605   0.00000  Uiso   1.00
H382   H     0.35599   0.41860   0.81857   0.00000  Uiso   1.00
H383   H     0.54630   0.62273   0.90845   0.00000  Uiso   1.00
H384   H     0.66095   0.72466   0.88510   0.00000  Uiso   1.00
H385   H     0.59229   0.65338   0.82022   0.00000  Uiso   1.00
H386   H     0.51223   0.75181   0.95221   0.00000  Uiso   1.00
H387   H     0.52604   0.83613   0.89462   0.00000  Uiso   1.00
H388   H     0.62607   0.83544   0.91592   0.00000  Uiso   1.00
H389   H     0.76181   0.96285   0.22613   0.00000  Uiso   1.00
H390   H     0.78893   0.90591   0.18233   0.00000  Uiso   1.00
H391   H     0.72120   0.94175   0.13820   0.00000  Uiso   1.00
H392   H     0.99582   1.03508   0.18996   0.00000  Uiso   1.00
H393   H     1.03854   1.12479   0.12536   0.00000  Uiso   1.00
H394   H     0.96560   1.01823   0.09934   0.00000  Uiso   1.00
H395   H     0.65571   0.01271   0.20859   0.00000  Uiso   1.00
H396   H     0.59373   0.01653   0.13755   0.00000  Uiso   1.00
H397   H     0.54235  -0.02445   0.22485   0.00000  Uiso   1.00
H398   H     0.69892   0.20310   0.07748   0.00000  Uiso   1.00
H399   H     0.77048   0.17332   0.13256   0.00000  Uiso   1.00
H400   H     0.77724   0.25863   0.14550   0.00000  Uiso   1.00
H401   H     0.70338  -0.06993   1.01083   0.00000  Uiso   1.00
H402   H     0.82112  -0.03883   0.99955   0.00000  Uiso   1.00
H403   H     0.73991  -0.04271   0.92809   0.00000  Uiso   1.00
H404   H     0.85612   0.15131  -0.12359   0.00000  Uiso   1.00
H405   H     0.93959   0.13395  -0.06930   0.00000  Uiso   1.00
H406   H     0.92869   0.21461  -0.05839   0.00000  Uiso   1.00
H407   H     0.72699   0.16027   0.93948   0.00000  Uiso   1.00
H408   H     0.67646   0.09216   1.01648   0.00000  Uiso   1.00
H409   H     0.65208   0.05191   0.93354   0.00000  Uiso   1.00
H410   H     0.77304   0.02802   0.31061   0.00000  Uiso   1.00
H411   H     0.71890   0.03596   0.37597   0.00000  Uiso   1.00
H412   H     0.83980   0.08208   0.39198   0.00000  Uiso   1.00
H413   H     0.75317   0.04595   0.58917   0.00000  Uiso   1.00
H414   H     0.83398   0.15061   0.60663   0.00000  Uiso   1.00
H415   H     0.82519   0.11587   0.52188   0.00000  Uiso   1.00
H416   H     1.05783   0.02324   0.71030   0.00000  Uiso   1.00
H417   H     1.14896   0.08017   0.76319   0.00000  Uiso   1.00
H418   H     1.17614   0.08013   0.67388   0.00000  Uiso   1.00
H419   H     1.28238   0.26517   0.72508   0.00000  Uiso   1.00
H420   H     1.19497   0.21229   0.79606   0.00000  Uiso   1.00
H421   H     1.20743   0.30736   0.73829   0.00000  Uiso   1.00
H422   H     1.00175   0.20966   0.68021   0.00000  Uiso   1.00
H423   H     0.99166   0.13920   0.75694   0.00000  Uiso   1.00
H424   H     0.95855   0.11118   0.67134   0.00000  Uiso   1.00
H425   H     0.69764   0.34638   0.16787   0.00000  Uiso   1.00
H426   H     0.59607   0.30227   0.22188   0.00000  Uiso   1.00
H427   H     0.70366   0.31773   0.26196   0.00000  Uiso   1.00
H428   H     0.56927   0.44621   0.22433   0.00000  Uiso   1.00
H429   H     0.64070   0.50278   0.29089   0.00000  Uiso   1.00
H430   H     0.57701   0.38707   0.30541   0.00000  Uiso   1.00
H431   H     0.56411   0.41862   0.42096   0.00000  Uiso   1.00
H432   H     0.64171   0.52615   0.43366   0.00000  Uiso   1.00
H433   H     0.55347   0.46481   0.49240   0.00000  Uiso   1.00
H434   H     0.69159   0.31536   0.53433   0.00000  Uiso   1.00
H435   H     0.63812   0.32755   0.44797   0.00000  Uiso   1.00
H436   H     0.57461   0.28551   0.52569   0.00000  Uiso   1.00
H437   H     0.63865   0.47980   0.61502   0.00000  Uiso   1.00
H438   H     0.71661   0.44873   0.64176   0.00000  Uiso   1.00
H439   H     0.58922   0.37228   0.63743   0.00000  Uiso   1.00
H440   H     0.58548   0.52193   0.84989   0.00000  Uiso   1.00
H441   H     0.59564   0.55172   0.75525   0.00000  Uiso   1.00
H442   H     0.64002   0.49214   0.79805   0.00000  Uiso   1.00
H443   H     0.94042   0.71513   0.07853   0.00000  Uiso   1.00
H444   H     0.89235   0.60081   0.05325   0.00000  Uiso   1.00
H445   H     0.94795   0.63353   0.13500   0.00000  Uiso   1.00
H446   H     0.68757   0.52992   0.02442   0.00000  Uiso   1.00
H447   H     0.74801   0.64487   0.01941   0.00000  Uiso   1.00
H448   H     0.63823   0.57440   0.06663   0.00000  Uiso   1.00
H449   H     0.84870   0.73698   0.16205   0.00000  Uiso   1.00
H450   H     0.81709   0.65444   0.23698   0.00000  Uiso   1.00
H451   H     0.72895   0.65637   0.18494   0.00000  Uiso   1.00
H452   H     1.16749   0.80066   0.39570   0.00000  Uiso   1.00
H453   H     1.05666   0.71551   0.42111   0.00000  Uiso   1.00
H454   H     1.09419   0.81950   0.44215   0.00000  Uiso   1.00
H455   H     0.71668   0.85743   0.50540   0.00000  Uiso   1.00
H456   H     0.75076   0.93978   0.54133   0.00000  Uiso   1.00
H457   H     0.63444   0.88389   0.49621   0.00000  Uiso   1.00
H458   H     0.76773   0.77860   0.32711   0.00000  Uiso   1.00
H459   H     0.69866   0.67816   0.38217   0.00000  Uiso   1.00
H460   H     0.72878   0.67620   0.29992   0.00000  Uiso   1.00
H461   H     0.95752   0.78830   0.47926   0.00000  Uiso   1.00
H462   H     0.84196   0.72149   0.50510   0.00000  Uiso   1.00
H463   H     0.87172   0.81657   0.44593   0.00000  Uiso   1.00
H464   H     0.98361   0.50392   0.62315   0.00000  Uiso   1.00
H465   H     0.87786   0.49131   0.63907   0.00000  Uiso   1.00
H466   H     0.97525   0.54251   0.69246   0.00000  Uiso   1.00
H467   H     0.83325   0.83611   0.58600   0.00000  Uiso   1.00
H468   H     0.93586   0.88378   0.63176   0.00000  Uiso   1.00
H469   H     0.88321   0.94514   0.60152   0.00000  Uiso   1.00
H470   H     0.80679   0.74030   0.79434   0.00000  Uiso   1.00
H471   H     0.85344   0.74050   0.72394   0.00000  Uiso   1.00
H472   H     0.72989   0.68275   0.72792   0.00000  Uiso   1.00
H473   H     0.91950   0.93545   0.76899   0.00000  Uiso   1.00
H474   H     0.80085   0.87917   0.80506   0.00000  Uiso   1.00
H475   H     0.84602   0.97159   0.73609   0.00000  Uiso   1.00
loop_
_geom_bond_atom_site_label_1
_geom_bond_atom_site_label_2
_geom_bond_distance
_geom_bond_site_symmetry_2
_ccdc_geom_bond_type
Si1    O54     1.546   .     S
Si1    O60     1.595   .     S
Si1    O148    1.591   1_455 S
Si1    O160    1.577   1_455 S
Si2    C52     1.849   .     S
Si2    O55     1.562   .     S
Si2    C84     1.855   1_545 S
Si2    O87     1.566   1_545 S
Si3    O56     1.583   .     S
Si3    O68     1.587   .     S
Si3    C53     1.852   1_455 S
Si3    O163    1.571   1_455 S
Si4    O54     1.617   .     S
Si4    O55     1.566   .     S
Si4    O69     1.591   .     S
Si4    O96     1.579   .     S
Si5    O56     1.662   .     S
Si5    C57     1.760   .     S
Si5    C58     1.844   .     S
Si5    C59     1.874   .     S
Si6    O60     1.648   .     S
Si6    C61     1.838   .     S
Si6    C64     1.850   .     S
Si6    O107    1.559   .     S
Si7    C62     1.879   .     S
Si7    O73     1.594   .     S
Si7    C63     1.862   1_455 S
Si7    O177    1.572   1_455 S
Si8    C65     1.853   .     S
Si8    C66     1.856   .     S
Si8    C67     1.848   1_554 S
Si8    O76     1.620   1_554 S
Si9    O68     1.612   .     S
Si9    O69     1.550   .     S
Si9    O74     1.582   .     S
Si9    C114    1.919   .     S
Si10   C70     1.954   .     S
Si10   C71     1.878   .     S
Si10   C72     1.865   1_455 S
Si10   O172    1.550   1_455 S
Si11   O73     1.604   .     S
Si11   O74     1.612   .     S
Si11   C75     1.862   .     S
Si11   C110    1.909   .     S
Si12   O76     1.620   .     S
Si12   O88     1.524   .     S
Si12   C77     1.919   1_455 S
Si12   C78     1.851   1_455 S
Si13   C79     1.800   .     S
Si13   O85     1.599   .     S
Si13   C184    1.849   1_455 S
Si13   O191    1.609   1_455 S
Si14   C80     1.840   .     S
Si14   C81     1.917   .     S
Si14   C82     1.863   1_554 S
Si14   O144    1.597   1_554 S
Si15   C83     1.844   .     S
Si15   O90     1.615   .     S
Si15   O187    1.592   1_455 S
Si15   C195    1.844   1_455 S
Si16   O85     1.598   .     S
Si16   C86     1.866   .     S
Si16   O87     1.604   .     S
Si16   O125    1.582   .     S
Si17   O88     1.609   .     S
Si17   C89     1.853   .     S
Si17   O91     1.583   .     S
Si17   O141    1.606   .     S
Si18   O90     1.592   .     S
Si18   O91     1.595   .     S
Si18   C92     1.929   .     S
Si18   O136    1.579   .     S
Si19   O97     1.598   .     S
Si19   O151    1.604   .     S
Si19   O124    1.598   1_545 S
Si19   C128    1.918   1_545 S
Si20   C93     1.869   .     S
Si20   C94     1.830   .     S
Si20   C95     1.820   .     S
Si20   O96     1.551   .     S
Si21   O97     1.575   .     S
Si21   C98     1.857   .     S
Si21   C99     1.892   1_554 S
Si21   C100    1.799   1_554 S
Si22   C101    1.863   .     S
Si22   O158    1.594   .     S
Si22   C102    1.892   1_545 S
Si22   C135    1.829   1_545 S
Si23   C103    1.858   .     S
Si23   O105    1.631   .     S
Si23   O143    1.608   1_545 S
Si23   O147    1.597   1_545 S
Si24   C104    1.888   .     S
Si24   O105    1.607   .     S
Si24   C106    1.927   .     S
Si24   O159    1.545   .     S
Si25   O107    1.595   .     S
Si25   C108    1.930   .     S
Si25   C109    1.869   .     S
Si25   O119    1.594   .     S
Si26   C111    1.853   .     S
Si26   O120    1.594   .     S
Si26   C112    1.907   1_554 S
Si26   C113    1.892   1_554 S
Si27   C115    1.889   .     S
Si27   C116    1.845   .     S
Si27   O117    1.590   .     S
Si27   O130    1.577   .     S
Si28   O117    1.547   .     S
Si28   C118    1.796   .     S
Si28   C138    1.887   .     S
Si28   C176    1.853   .     S
Si29   O119    1.590   .     S
Si29   O120    1.607   .     S
Si29   C121    1.912   .     S
Si29   O126    1.520   .     S
Si30   C122    1.894   .     S
Si30   C123    1.863   .     S
Si30   O124    1.593   .     S
Si30   O125    1.554   .     S
Si31   O126    1.573   .     S
Si31   C127    1.895   .     S
Si31   C129    1.857   1_554 S
Si31   O142    1.574   1_554 S
Si32   O130    1.594   .     S
Si32   C131    1.878   .     S
Si32   C132    1.878   .     S
Si32   O188    1.609   .     S
Si33   C133    1.818   .     S
Si33   C134    1.847   .     S
Si33   O136    1.599   .     S
Si33   O145    1.615   .     S
Si34   C137    1.838   .     S
Si34   C139    1.890   .     S
Si34   C140    1.815   .     S
Si34   O146    1.586   .     S
Si35   O141    1.562   .     S
Si35   O142    1.622   .     S
Si35   O143    1.670   .     S
Si35   O144    1.617   .     S
Si36   O145    1.600   .     S
Si36   O146    1.597   .     S
Si36   O147    1.560   .     S
Si36   O190    1.609   .     S
Si37   O148    1.601   .     S
Si37   O155    1.593   .     S
Si37   C149    1.899   1_545 S
Si37   C150    1.846   1_545 S
Si38   O151    1.631   .     S
Si38   C152    1.906   .     S
Si38   C153    1.843   .     S
Si38   O161    1.598   .     S
Si39   O155    1.616   .     S
Si39   C156    1.893   .     S
Si39   C154    1.878   1_554 S
Si39   C157    1.919   1_554 S
Si40   O158    1.597   .     S
Si40   O159    1.564   .     S
Si40   C164    1.825   .     S
Si40   O170    1.612   .     S
Si41   O160    1.576   .     S
Si41   O161    1.604   .     S
Si41   C162    1.887   .     S
Si41   O171    1.588   .     S
Si42   O163    1.620   .     S
Si42   C165    1.897   .     S
Si42   C166    1.826   .     S
Si42   C167    1.871   .     S
Si43   C168    1.851   .     S
Si43   C169    1.857   .     S
Si43   O178    1.582   .     S
Si43   O180    1.590   .     S
Si44   O170    1.638   .     S
Si44   O171    1.651   .     S
Si44   O172    1.561   .     S
Si44   O179    1.626   .     S
Si45   C173    1.902   .     S
Si45   C174    1.866   .     S
Si45   C175    1.869   .     S
Si45   O185    1.558   .     S
Si46   O177    1.622   .     S
Si46   O178    1.624   .     S
Si46   O179    1.653   .     S
Si46   O186    1.581   .     S
Si47   O180    1.581   .     S
Si47   C181    1.833   .     S
Si47   C182    1.887   .     S
Si47   C183    1.895   .     S
Si48   O185    1.616   .     S
Si48   O186    1.575   .     S
Si48   O187    1.610   .     S
Si48   O193    1.583   .     S
Si49   O188    1.602   .     S
Si49   C189    1.869   .     S
Si49   O190    1.555   .     S
Si49   O197    1.554   .     S
Si50   O191    1.646   .     S
Si50   C192    1.824   .     S
Si50   O193    1.649   .     S
Si50   C194    1.849   .     S
Si51   C196    1.878   .     S
Si51   O197    1.557   .     S
Si51   C198    1.849   .     S
Si51   C199    1.901   .     S
C52    H200    1.113   .     S
C52    H201    1.122   .     S
C52    H202    1.111   .     S
C53    H203    1.139   .     S
C53    H204    1.127   .     S
C53    H205    1.115   .     S
C53    Si3     1.852   1_655 S
C57    H206    1.099   .     S
C57    H207    1.142   .     S
C57    H208    1.051   .     S
C58    H209    1.072   .     S
C58    H210    1.159   .     S
C58    H211    1.134   .     S
C59    H212    1.087   .     S
C59    H213    1.088   .     S
C59    H214    1.064   .     S
C61    H215    1.099   .     S
C61    H216    1.089   .     S
C61    H217    1.114   .     S
C62    H218    1.147   .     S
C62    H219    1.139   .     S
C62    H220    1.110   .     S
C63    H221    1.053   .     S
C63    H222    1.127   .     S
C63    H223    1.165   .     S
C63    Si7     1.862   1_655 S
C64    H224    1.083   .     S
C64    H225    1.100   .     S
C64    H226    1.068   .     S
C65    H227    1.096   .     S
C65    H228    1.085   .     S
C65    H229    1.101   .     S
C66    H230    1.109   .     S
C66    H231    1.145   .     S
C66    H232    1.136   .     S
C67    H233    1.045   .     S
C67    H234    1.075   .     S
C67    H235    1.086   .     S
C67    Si8     1.848   1_556 S
C70    H236    1.090   .     S
C70    H237    1.110   .     S
C70    H238    1.102   .     S
C71    H239    1.100   .     S
C71    H240    1.114   .     S
C71    H241    1.080   .     S
C72    H242    1.170   .     S
C72    H243    1.033   .     S
C72    H244    1.109   .     S
C72    Si10    1.865   1_655 S
C75    H245    1.093   .     S
C75    H246    1.082   .     S
C75    H247    1.103   .     S
O76    Si8     1.620   1_556 S
C77    H248    1.110   .     S
C77    H249    1.046   .     S
C77    H250    1.090   .     S
C77    Si12    1.919   1_655 S
C78    H251    1.087   .     S
C78    H252    1.060   .     S
C78    H253    1.070   .     S
C78    Si12    1.851   1_655 S
C79    H254    1.131   .     S
C79    H255    1.150   .     S
C79    H256    1.158   .     S
C80    H257    1.147   .     S
C80    H258    1.087   .     S
C80    H259    1.038   .     S
C81    H260    1.054   .     S
C81    H261    1.161   .     S
C81    H262    1.080   .     S
C82    H263    1.134   .     S
C82    H264    1.105   .     S
C82    H265    1.090   .     S
C82    Si14    1.863   1_556 S
C83    H266    1.104   .     S
C83    H267    1.071   .     S
C83    H268    1.068   .     S
C84    H269    1.109   .     S
C84    H270    1.013   .     S
C84    H271    1.079   .     S
C84    Si2     1.855   1_565 S
C86    H272    1.133   .     S
C86    H273    1.078   .     S
C86    H274    1.056   .     S
O87    Si2     1.566   1_565 S
C89    H275    1.134   .     S
C89    H276    1.140   .     S
C89    H277    1.175   .     S
C92    H278    1.093   .     S
C92    H279    1.138   .     S
C92    H280    1.113   .     S
C93    H281    1.124   .     S
C93    H282    1.073   .     S
C93    H283    1.063   .     S
C94    H284    1.059   .     S
C94    H285    1.075   .     S
C94    H286    1.121   .     S
C95    H287    1.109   .     S
C95    H288    1.094   .     S
C95    H289    1.153   .     S
C98    H290    1.079   .     S
C98    H291    1.169   .     S
C98    H292    1.052   .     S
C99    H293    1.079   .     S
C99    H294    1.071   .     S
C99    H295    1.107   .     S
C99    Si21    1.892   1_556 S
C100   H296    1.138   .     S
C100   H297    1.100   .     S
C100   H298    1.106   .     S
C100   Si21    1.799   1_556 S
C101   H299    1.069   .     S
C101   H300    1.073   .     S
C101   H301    1.114   .     S
C102   H302    1.098   .     S
C102   H303    1.053   .     S
C102   H304    1.088   .     S
C102   Si22    1.892   1_565 S
C103   H305    1.051   .     S
C103   H306    1.076   .     S
C103   H307    1.155   .     S
C104   H308    1.156   .     S
C104   H309    1.078   .     S
C104   H310    1.169   .     S
C106   H311    1.110   .     S
C106   H312    1.150   .     S
C106   H313    1.081   .     S
C108   H314    1.070   .     S
C108   H315    1.167   .     S
C108   H316    1.073   .     S
C109   H317    1.066   .     S
C109   H318    1.096   .     S
C109   H319    1.142   .     S
C110   H320    1.117   .     S
C110   H321    1.140   .     S
C110   H322    1.171   .     S
C111   H323    1.094   .     S
C111   H324    1.123   .     S
C111   H325    1.148   .     S
C112   H326    1.138   .     S
C112   H327    1.129   .     S
C112   H328    1.113   .     S
C112   Si26    1.907   1_556 S
C113   H329    1.056   .     S
C113   H330    1.103   .     S
C113   H331    1.097   .     S
C113   Si26    1.892   1_556 S
C114   H332    1.125   .     S
C114   H333    1.070   .     S
C114   H334    1.099   .     S
C115   H335    1.149   .     S
C115   H336    1.139   .     S
C115   H337    1.125   .     S
C116   H338    1.141   .     S
C116   H339    1.130   .     S
C116   H340    1.122   .     S
C118   H341    1.119   .     S
C118   H342    1.088   .     S
C118   H343    1.136   .     S
C121   H344    1.107   .     S
C121   H345    1.105   .     S
C121   H346    1.116   .     S
C122   H347    1.126   .     S
C122   H348    1.132   .     S
C122   H349    1.142   .     S
C123   H350    1.104   .     S
C123   H351    1.151   .     S
C123   H352    1.114   .     S
O124   Si19    1.598   1_565 S
C127   H353    1.084   .     S
C127   H354    1.108   .     S
C127   H355    1.109   .     S
C128   H356    1.084   .     S
C128   H357    1.104   .     S
C128   H358    1.114   .     S
C128   Si19    1.918   1_565 S
C129   H359    1.065   .     S
C129   H360    1.131   .     S
C129   H361    1.067   .     S
C129   Si31    1.857   1_556 S
C131   H362    1.129   .     S
C131   H363    1.096   .     S
C131   H364    1.131   .     S
C132   H365    1.080   .     S
C132   H366    1.088   .     S
C132   H367    1.118   .     S
C133   H368    1.090   .     S
C133   H369    1.149   .     S
C133   H370    1.104   .     S
C134   H371    1.080   .     S
C134   H372    1.109   .     S
C134   H373    1.108   .     S
C135   H374    1.081   .     S
C135   H375    1.130   .     S
C135   H376    1.137   .     S
C135   Si22    1.829   1_565 S
C137   H377    1.078   .     S
C137   H378    1.134   .     S
C137   H379    1.163   .     S
C138   H380    1.094   .     S
C138   H381    1.253   .     S
C138   H382    1.136   .     S
C139   H383    1.106   .     S
C139   H384    1.137   .     S
C139   H385    1.126   .     S
C140   H386    1.087   .     S
C140   H387    1.111   .     S
C140   H388    1.121   .     S
O142   Si31    1.574   1_556 S
O143   Si23    1.608   1_565 S
O144   Si14    1.597   1_556 S
O147   Si23    1.597   1_565 S
O148   Si1     1.591   1_655 S
C149   H389    1.071   .     S
C149   H390    1.109   .     S
C149   H391    1.135   .     S
C149   Si37    1.899   1_565 S
C150   H392    1.073   .     S
C150   H393    1.109   .     S
C150   H394    1.135   .     S
C150   Si37    1.846   1_565 S
C152   H395    1.058   .     S
C152   H396    1.090   .     S
C152   H397    1.132   .     S
C153   H398    1.101   .     S
C153   H399    1.116   .     S
C153   H400    1.044   .     S
C154   H401    1.076   .     S
C154   H402    1.126   .     S
C154   H403    1.074   .     S
C154   Si39    1.878   1_556 S
C156   H404    1.128   .     S
C156   H405    1.088   .     S
C156   H406    1.056   .     S
C157   H407    1.099   .     S
C157   H408    1.088   .     S
C157   H409    1.139   .     S
C157   Si39    1.919   1_556 S
O160   Si1     1.577   1_655 S
C162   H410    1.125   .     S
C162   H411    1.118   .     S
C162   H412    1.143   .     S
O163   Si3     1.571   1_655 S
C164   H413    1.074   .     S
C164   H414    1.125   .     S
C164   H415    1.127   .     S
C165   H416    1.160   .     S
C165   H417    1.100   .     S
C165   H418    1.124   .     S
C166   H419    1.147   .     S
C166   H420    1.178   .     S
C166   H421    1.163   .     S
C167   H422    1.108   .     S
C167   H423    1.114   .     S
C167   H424    1.084   .     S
C168   H425    1.167   .     S
C168   H426    1.126   .     S
C168   H427    1.066   .     S
C169   H428    1.091   .     S
C169   H429    1.150   .     S
C169   H430    1.122   .     S
O172   Si10    1.550   1_655 S
C173   H431    1.087   .     S
C173   H432    1.084   .     S
C173   H433    1.142   .     S
C174   H434    1.121   .     S
C174   H435    1.099   .     S
C174   H436    1.123   .     S
C175   H437    1.104   .     S
C175   H438    1.118   .     S
C175   H439    1.068   .     S
C176   H440    1.180   .     S
C176   H441    1.085   .     S
C176   H442    1.098   .     S
O177   Si7     1.572   1_655 S
C181   H443    1.210   .     S
C181   H444    1.132   .     S
C181   H445    1.096   .     S
C182   H446    1.110   .     S
C182   H447    1.102   .     S
C182   H448    1.168   .     S
C183   H449    1.141   .     S
C183   H450    1.085   .     S
C183   H451    1.103   .     S
C184   H452    1.116   .     S
C184   H453    1.078   .     S
C184   H454    1.157   .     S
C184   Si13    1.849   1_655 S
O187   Si15    1.592   1_655 S
C189   H455    1.080   .     S
C189   H456    1.131   .     S
C189   H457    1.090   .     S
O191   Si13    1.609   1_655 S
C192   H458    1.097   .     S
C192   H459    1.113   .     S
C192   H460    1.147   .     S
C194   H461    1.096   .     S
C194   H462    1.129   .     S
C194   H463    1.106   .     S
C195   H464    1.106   .     S
C195   H465    1.108   .     S
C195   H466    1.067   .     S
C195   Si15    1.844   1_655 S
C196   H467    1.056   .     S
C196   H468    1.117   .     S
C196   H469    1.160   .     S
C198   H470    1.056   .     S
C198   H471    1.081   .     S
C198   H472    1.093   .     S
C199   H473    1.110   .     S
C199   H474    1.087   .     S
C199   H475    1.146   .     S
