data_333-11-11-14-15-30-5
_audit_creation_date              2025-03-07
_audit_creation_method            'Materials Studio'
_symmetry_space_group_name_H-M    'P1'
_symmetry_Int_Tables_number       1
_symmetry_cell_setting            triclinic
loop_
_symmetry_equiv_pos_as_xyz
  x,y,z
_cell_length_a                    18.1764
_cell_length_b                    17.3899
_cell_length_c                    18.1959
_cell_angle_alpha                 93.5911
_cell_angle_beta                  86.0561
_cell_angle_gamma                 128.5826
loop_
_atom_site_label
_atom_site_type_symbol
_atom_site_fract_x
_atom_site_fract_y
_atom_site_fract_z
_atom_site_U_iso_or_equiv
_atom_site_adp_type
_atom_site_occupancy
Si1    Si    0.19700  -0.02710   0.13086   0.00000  Uiso   1.00
Si2    Si   -0.00043   0.16796   0.28144   0.00000  Uiso   1.00
Si3    Si    0.13902   0.09563   0.07395   0.00000  Uiso   1.00
Si4    Si   -0.03524   0.19926   0.57735   0.00000  Uiso   1.00
Si5    Si    0.12841   0.20763   0.40117   0.00000  Uiso   1.00
Si6    Si    0.15233   0.26573   0.15497   0.00000  Uiso   1.00
Si7    Si    0.05861   0.48063   0.22248   0.00000  Uiso   1.00
Si8    Si    0.11746   0.35730   0.47033   0.00000  Uiso   1.00
Si9    Si    0.01599   0.50609   0.57427   0.00000  Uiso   1.00
Si10   Si    0.18212   0.47098   0.32117   0.00000  Uiso   1.00
Si11   Si    0.14806   0.52639   0.69342   0.00000  Uiso   1.00
Si12   Si    0.20549   0.67056   0.13279   0.00000  Uiso   1.00
Si13   Si    0.19132   0.80721   0.04540   0.00000  Uiso   1.00
Si14   Si   -0.08854   0.80943   0.57206   0.00000  Uiso   1.00
Si15   Si    0.25557   0.84183   0.34150   0.00000  Uiso   1.00
Si16   Si    0.20362   0.68765   0.81492   0.00000  Uiso   1.00
Si17   Si    0.03407   0.76353   0.95450   0.00000  Uiso   1.00
Si18   Si    0.19396   0.81627   0.71390   0.00000  Uiso   1.00
Si19   Si    0.55700   0.00451   0.12096   0.00000  Uiso   1.00
Si20   Si    0.54296   0.14538   0.04620   0.00000  Uiso   1.00
Si21   Si    0.42459   0.24893   0.48890   0.00000  Uiso   1.00
Si22   Si    0.57934   0.21517   0.30662   0.00000  Uiso   1.00
Si23   Si    0.48263  -0.01527   0.83149   0.00000  Uiso   1.00
Si24   Si    0.51155   0.21829   0.60771   0.00000  Uiso   1.00
Si25   Si    0.44953   0.35481   0.05221   0.00000  Uiso   1.00
Si26   Si    0.32814   0.47163   0.21687   0.00000  Uiso   1.00
Si27   Si    0.41289   0.48447  -0.01239   0.00000  Uiso   1.00
Si28   Si    0.55250   0.37083   0.35207   0.00000  Uiso   1.00
Si29   Si    0.26345   0.50876   0.57718   0.00000  Uiso   1.00
Si30   Si    0.49999   0.49423   0.28494   0.00000  Uiso   1.00
Si31   Si    0.44924   0.28236   0.73705   0.00000  Uiso   1.00
Si32   Si    0.27119   0.43039   0.87501   0.00000  Uiso   1.00
Si33   Si    0.46828   0.65309   0.10206   0.00000  Uiso   1.00
Si34   Si    0.37992   0.85015   0.21106   0.00000  Uiso   1.00
Si35   Si    0.49874   0.82381   0.02101   0.00000  Uiso   1.00
Si36   Si    0.56259   0.66677   0.38058   0.00000  Uiso   1.00
Si37   Si    0.54441   0.75473   0.73082   0.00000  Uiso   1.00
Si38   Si    0.34232   0.81673   0.93487   0.00000  Uiso   1.00
Si39   Si    0.71372   0.17737   0.22098   0.00000  Uiso   1.00
Si40   Si    0.88429   0.32505  -0.02468   0.00000  Uiso   1.00
Si41   Si    0.84287   0.17898   0.33995   0.00000  Uiso   1.00
Si42   Si    0.81335   0.03226   0.80357   0.00000  Uiso   1.00
Si43   Si    0.80882   0.15802   0.69322   0.00000  Uiso   1.00
Si44   Si    0.87929   0.36343   0.14121   0.00000  Uiso   1.00
Si45   Si    0.84616   0.51701   0.16177   0.00000  Uiso   1.00
Si46   Si    0.88490   0.32855   0.46567   0.00000  Uiso   1.00
Si47   Si    0.68893   0.54114   0.45754   0.00000  Uiso   1.00
Si48   Si    0.67694   0.81612   0.14351   0.00000  Uiso   1.00
Si49   Si    0.74134   0.76400  -0.10696   0.00000  Uiso   1.00
Si50   Si    0.89008   0.72650   0.42066   0.00000  Uiso   1.00
Si51   Si    0.63370   0.85301   0.87757   0.00000  Uiso   1.00
C52    C     0.28808   0.04445   0.19546   0.00000  Uiso   1.00
C53    C     0.09558   0.88316   0.18856   0.00000  Uiso   1.00
C54    C     0.94713   0.04793   0.24662   0.00000  Uiso   1.00
O55    O     0.18836   0.04559   0.08951   0.00000  Uiso   1.00
C56    C     0.00698  -0.00138   1.07720   0.00000  Uiso   1.00
C57    C     0.17154   0.14435   0.97815   0.00000  Uiso   1.00
C58    C     0.05621   0.20391   0.63024   0.00000  Uiso   1.00
C59    C     0.88887   0.07690   0.53168   0.00000  Uiso   1.00
O60    O     0.03847   0.17287   0.35807   0.00000  Uiso   1.00
C61    C     0.09670   0.09945   0.45839   0.00000  Uiso   1.00
C62    C     0.22701   0.23671   0.33671   0.00000  Uiso   1.00
O63    O     0.08408   0.24155   0.22817   0.00000  Uiso   1.00
O64    O     0.16347   0.18051   0.13296   0.00000  Uiso   1.00
C65    C     0.10451   0.28704   0.08060   0.00000  Uiso   1.00
C66    C     0.99354   0.48337   0.29955   0.00000  Uiso   1.00
O67    O     0.01552   0.28270   0.51531   0.00000  Uiso   1.00
O68    O     0.15585   0.29828   0.45233   0.00000  Uiso   1.00
C69    C     0.07620   0.61677   0.51552   0.00000  Uiso   1.00
C70    C     0.91802   0.49239   0.62929   0.00000  Uiso   1.00
O71    O     0.11635   0.45342   0.25996   0.00000  Uiso   1.00
O72    O     0.11767   0.39552   0.38923   0.00000  Uiso   1.00
C73    C     0.24485   0.59013   0.35949   0.00000  Uiso   1.00
O74    O     0.09506   0.53846   0.63159   0.00000  Uiso   1.00
C75    C     0.05993   0.41358   0.73819   0.00000  Uiso   1.00
O76    O     0.12640   0.58964   0.19073   0.00000  Uiso   1.00
C77    C     0.21885   0.60678   0.05127   0.00000  Uiso   1.00
O78    O     0.17422   0.73292   0.10597   0.00000  Uiso   1.00
O79    O     0.21364   0.90855   0.07679   0.00000  Uiso   1.00
C80    C     0.02888   0.93054   0.60403   0.00000  Uiso   1.00
C81    C     0.82267   0.82796   0.54953   0.00000  Uiso   1.00
C82    C     0.15135   0.72094   0.32997   0.00000  Uiso   1.00
C83    C     0.32255   0.85013   0.42157   0.00000  Uiso   1.00
C84    C     0.21995   0.91730   0.36427   0.00000  Uiso   1.00
C85    C     0.09065   0.59637   0.86614   0.00000  Uiso   1.00
O86    O     0.20823   0.62529   0.74860   0.00000  Uiso   1.00
O87    O     0.09779   0.74755   0.99472   0.00000  Uiso   1.00
C88    C     0.10995   0.88574   0.91105   0.00000  Uiso   1.00
C89    C     0.96775   0.66555   0.88226   0.00000  Uiso   1.00
C90    C    -0.13590   0.70973   0.64160   0.00000  Uiso   1.00
C91    C     0.06909   0.75234   0.70134   0.00000  Uiso   1.00
O92    O     0.20777   0.77370   0.78213   0.00000  Uiso   1.00
C93    C     0.25283   0.94888   0.73117   0.00000  Uiso   1.00
C94    C     0.24817   0.78934   0.63274   0.00000  Uiso   1.00
O95    O     0.57177   0.08050   0.06603   0.00000  Uiso   1.00
C96    C     0.41944   0.06915   1.03067   0.00000  Uiso   1.00
C97    C     0.61569   0.22365   0.96928   0.00000  Uiso   1.00
C98    C     0.32946   0.11716   0.46486   0.00000  Uiso   1.00
C99    C     0.35863   0.29028   0.53138   0.00000  Uiso   1.00
C100   C     0.45869   0.10452   0.28675   0.00000  Uiso   1.00
C101   C     0.59286   0.19409   0.40373   0.00000  Uiso   1.00
C102   C     0.60386   0.03333   0.85919   0.00000  Uiso   1.00
C103   C     0.45026   0.90490   0.74469   0.00000  Uiso   1.00
O104   O     0.50231   0.26447   0.54018   0.00000  Uiso   1.00
C105   C     0.48680   0.08991   0.81085   0.00000  Uiso   1.00
C106   C     0.46100   0.08982   0.58393   0.00000  Uiso   1.00
C107   C     0.63717   0.29494   0.63212   0.00000  Uiso   1.00
C108   C     0.40359   0.28861   0.14593   0.00000  Uiso   1.00
C109   C     0.57197   0.23874   0.12148   0.00000  Uiso   1.00
C110   C     0.41551   0.26143  -0.02057   0.00000  Uiso   1.00
C111   C     0.57574   0.43692   0.03821   0.00000  Uiso   1.00
O112   O     0.25618   0.37312   0.16508   0.00000  Uiso   1.00
O113   O     0.26449   0.46678   0.28543   0.00000  Uiso   1.00
O114   O     0.40221   0.40419   0.03477   0.00000  Uiso   1.00
C115   C     0.49719   0.51230   0.91181   0.00000  Uiso   1.00
O116   O     0.46914   0.29590   0.41127   0.00000  Uiso   1.00
O117   O     0.58111   0.31034   0.30462   0.00000  Uiso   1.00
O118   O     0.18201   0.44973   0.52219   0.00000  Uiso   1.00
C119   C     0.31920   0.44791   0.57146   0.00000  Uiso   1.00
O120   O     0.22125   0.51332   0.65459   0.00000  Uiso   1.00
O121   O     0.39759   0.45511   0.25508   0.00000  Uiso   1.00
O122   O     0.50617   0.40832   0.30158   0.00000  Uiso   1.00
C123   C     0.58472   0.55868   0.20750   0.00000  Uiso   1.00
C124   C     0.32781   0.21760   0.78001   0.00000  Uiso   1.00
O125   O     0.45466   0.21471   0.67882   0.00000  Uiso   1.00
C126   C     0.49434   0.40278   0.69595   0.00000  Uiso   1.00
C127   C     0.52853   0.31051   0.81355   0.00000  Uiso   1.00
C128   C     0.16403   0.30373   0.86792   0.00000  Uiso   1.00
O129   O     0.31966   0.43912   0.94509   0.00000  Uiso   1.00
C130   C     0.24402   0.51885   0.88841   0.00000  Uiso   1.00
O131   O     0.38628   0.57778   0.16826   0.00000  Uiso   1.00
O132   O     0.45000   0.58449   0.03156   0.00000  Uiso   1.00
O133   O     0.30625   0.74838   0.16822   0.00000  Uiso   1.00
C134   C     0.45267   0.83904   0.26657   0.00000  Uiso   1.00
O135   O     0.45418   0.94542   0.15782   0.00000  Uiso   1.00
O136   O     0.32009   0.87242   0.26612   0.00000  Uiso   1.00
O137   O     0.45699   0.73241   0.07190   0.00000  Uiso   1.00
O138   O     0.55249   0.92158   0.07176   0.00000  Uiso   1.00
C139   C     0.33591   0.63289   0.54102   0.00000  Uiso   1.00
C140   C     0.53387   0.67959   0.48035   0.00000  Uiso   1.00
O141   O     0.52666   0.56300   0.35614   0.00000  Uiso   1.00
C142   C     0.50854   0.70541   0.32665   0.00000  Uiso   1.00
C143   C     0.69381   0.75984   0.37604   0.00000  Uiso   1.00
C144   C     0.34201   0.45747   0.78938   0.00000  Uiso   1.00
C145   C     0.41487   0.68226   0.72609   0.00000  Uiso   1.00
C146   C     0.56844   0.66811   0.71862   0.00000  Uiso   1.00
C147   C     0.60154   0.84109   0.65483   0.00000  Uiso   1.00
O148   O     0.28615   0.73372   0.87139   0.00000  Uiso   1.00
O149   O     0.40898   0.80530   0.97942   0.00000  Uiso   1.00
O150   O     0.40745   0.92038   0.89295   0.00000  Uiso   1.00
O151   O     0.27721   0.82693   0.99125   0.00000  Uiso   1.00
O152   O     0.64056   0.06730   0.18263   0.00000  Uiso   1.00
O153   O     0.65891   0.21745   0.25703   0.00000  Uiso   1.00
C154   C     1.00071   0.35709   0.95066   0.00000  Uiso   1.00
C155   C     0.79514   0.18911  -0.02413   0.00000  Uiso   1.00
C156   C     0.85160   0.36972   0.90474   0.00000  Uiso   1.00
O157   O     0.92230   0.18397   0.28947   0.00000  Uiso   1.00
O158   O     0.77620   0.18621   0.28812   0.00000  Uiso   1.00
C159   C     0.76334   0.05459   0.38452   0.00000  Uiso   1.00
C160   C     0.92434   0.11380   0.85531   0.00000  Uiso   1.00
C161   C     0.83670   0.97159   0.72930   0.00000  Uiso   1.00
O162   O     0.89417   0.20041   0.63514   0.00000  Uiso   1.00
C163   C     0.69610   0.07718   0.64535   0.00000  Uiso   1.00
O164   O     0.81009   0.10873   0.76440   0.00000  Uiso   1.00
C165   C     0.81078   0.26143   0.73566   0.00000  Uiso   1.00
O166   O     0.79147   0.25327   0.15941   0.00000  Uiso   1.00
O167   O     0.88874   0.37377   0.05366   0.00000  Uiso   1.00
O168   O     0.97689   0.39467   0.16852   0.00000  Uiso   1.00
C169   C     0.96191   0.63788   1.15826   0.00000  Uiso   1.00
O170   O     0.85582   0.43514   0.18066   0.00000  Uiso   1.00
C171   C     0.77380   0.51715   0.24189   0.00000  Uiso   1.00
C172   C     0.79890   0.48861   1.06855   0.00000  Uiso   1.00
C173   C     0.78772   0.22927   0.52197   0.00000  Uiso   1.00
O174   O     0.89879   0.27167   0.40265   0.00000  Uiso   1.00
C175   C     0.83677   0.38953   0.43580   0.00000  Uiso   1.00
O176   O     0.97299   0.40929   0.51862   0.00000  Uiso   1.00
O177   O     0.64202   0.45898   0.39217   0.00000  Uiso   1.00
C178   C     0.73330   0.49746   0.52034   0.00000  Uiso   1.00
C179   C     0.59832   0.53865   0.51315   0.00000  Uiso   1.00
O180   O     0.57632   0.71165   0.13017   0.00000  Uiso   1.00
C181   C     0.76780   0.79991   0.15373   0.00000  Uiso   1.00
C182   C     0.73122   0.90770   0.06333   0.00000  Uiso   1.00
C183   C     0.69217   0.90033   0.22150   0.00000  Uiso   1.00
C184   C     0.94516   0.75277   1.01816   0.00000  Uiso   1.00
C185   C     0.74095   0.69283   0.81199   0.00000  Uiso   1.00
C186   C     0.71522   0.69347  -0.02184   0.00000  Uiso   1.00
C187   C     0.86532   0.87795  -0.10444   0.00000  Uiso   1.00
O188   O     0.77913   0.64641   0.42544   0.00000  Uiso   1.00
C189   C     0.94359   0.67104   0.38453   0.00000  Uiso   1.00
C190   C     0.93371   0.83092   0.35899   0.00000  Uiso   1.00
O191   O     0.93174   0.77295   0.49704   0.00000  Uiso   1.00
O192   O     0.56754   0.80893   0.80902   0.00000  Uiso   1.00
O193   O     0.67074   0.79063   0.88715   0.00000  Uiso   1.00
O194   O     0.72776   0.96615   0.86270   0.00000  Uiso   1.00
O195   O     0.57675   0.85210   0.95374   0.00000  Uiso   1.00
H196   H     0.35581   0.09358   0.17044   0.00000  Uiso   1.00
H197   H     0.29078  -0.00552   0.22734   0.00000  Uiso   1.00
H198   H     0.27855   0.08906   0.23628   0.00000  Uiso   1.00
H199   H     0.09239   0.92796   0.23519   0.00000  Uiso   1.00
H200   H     0.10681   0.83646   0.21471   0.00000  Uiso   1.00
H201   H     0.02896   0.84183   0.16260   0.00000  Uiso   1.00
H202   H     1.00192   0.03998   0.24003   0.00000  Uiso   1.00
H203   H     0.91956   0.03821   0.19330   0.00000  Uiso   1.00
H204   H     0.89839  -0.00490   0.28722   0.00000  Uiso   1.00
H205   H    -0.01238  -0.03857   1.12970   0.00000  Uiso   1.00
H206   H    -0.01270  -0.05120   1.02646   0.00000  Uiso   1.00
H207   H    -0.02574   0.03571   1.07394   0.00000  Uiso   1.00
H208   H     0.10544   0.13011   0.96129   0.00000  Uiso   1.00
H209   H     0.18272   0.09845   0.94076   0.00000  Uiso   1.00
H210   H     0.22832   0.22378   0.98362   0.00000  Uiso   1.00
H211   H     0.06394   0.23914   0.68622   0.00000  Uiso   1.00
H212   H     0.12942   0.25225   0.60380   0.00000  Uiso   1.00
H213   H     0.03282   0.12477   0.63691   0.00000  Uiso   1.00
H214   H     0.81344   0.04544   0.52530   0.00000  Uiso   1.00
H215   H     0.88594   0.02400   0.56468   0.00000  Uiso   1.00
H216   H     0.92363   0.08296   0.47745   0.00000  Uiso   1.00
H217   H     0.05336   0.02956   0.42881   0.00000  Uiso   1.00
H218   H     0.06072   0.08878   0.51000   0.00000  Uiso   1.00
H219   H     0.16055   0.11090   0.47058   0.00000  Uiso   1.00
H220   H     0.25172   0.29694   0.30574   0.00000  Uiso   1.00
H221   H     0.21518   0.18477   0.29548   0.00000  Uiso   1.00
H222   H     0.28258   0.24955   0.37182   0.00000  Uiso   1.00
H223   H     0.06441   0.30758   0.10362   0.00000  Uiso   1.00
H224   H     0.06381   0.22387   0.04181   0.00000  Uiso   1.00
H225   H     0.16652   0.35215   0.04797   0.00000  Uiso   1.00
H226   H     0.96206   0.51700   0.28275   0.00000  Uiso   1.00
H227   H     1.03551   0.51414   0.35020   0.00000  Uiso   1.00
H228   H     0.93732   0.40871   0.31013   0.00000  Uiso   1.00
H229   H     0.05674   0.66344   0.54240   0.00000  Uiso   1.00
H230   H     0.03348   0.58673   0.46844   0.00000  Uiso   1.00
H231   H     0.15034   0.65070   0.50242   0.00000  Uiso   1.00
H232   H     0.91827   0.55373   0.61916   0.00000  Uiso   1.00
H233   H     0.92270   0.48211   0.68739   0.00000  Uiso   1.00
H234   H     0.84765   0.42162   0.61402   0.00000  Uiso   1.00
H235   H     0.27461   0.63956   0.31212   0.00000  Uiso   1.00
H236   H     0.30265   0.60891   0.39749   0.00000  Uiso   1.00
H237   H     0.19398   0.59770   0.39310   0.00000  Uiso   1.00
H238   H     0.02518   0.36106   0.69112   0.00000  Uiso   1.00
H239   H     0.01121   0.41640   0.77348   0.00000  Uiso   1.00
H240   H     0.08470   0.38525   0.77568   0.00000  Uiso   1.00
H241   H     0.18092   0.52918   0.06645   0.00000  Uiso   1.00
H242   H     0.29397   0.64209   0.04529   0.00000  Uiso   1.00
H243   H     0.19658   0.61841   0.00182   0.00000  Uiso   1.00
H244   H     0.06832   0.92708   0.64502   0.00000  Uiso   1.00
H245   H     0.01420   0.97837   0.62962   0.00000  Uiso   1.00
H246   H     0.07603   0.96495   0.55201   0.00000  Uiso   1.00
H247   H     0.81506   0.86570   0.59671   0.00000  Uiso   1.00
H248   H     0.75259   0.75474   0.54534   0.00000  Uiso   1.00
H249   H     0.85169   0.86979   0.49817   0.00000  Uiso   1.00
H250   H     0.17594   0.68071   0.29927   0.00000  Uiso   1.00
H251   H     0.10245   0.71996   0.29532   0.00000  Uiso   1.00
H252   H     0.11927   0.68768   0.38540   0.00000  Uiso   1.00
H253   H     0.30646   0.77889   0.43326   0.00000  Uiso   1.00
H254   H     0.29562   0.87028   0.46868   0.00000  Uiso   1.00
H255   H     0.40007   0.90837   0.41233   0.00000  Uiso   1.00
H256   H     0.15947   0.89704   0.33505   0.00000  Uiso   1.00
H257   H     0.27669   0.99528   0.35210   0.00000  Uiso   1.00
H258   H     0.20873   0.91927   0.42534   0.00000  Uiso   1.00
H259   H     0.10861   0.54997   0.88474   0.00000  Uiso   1.00
H260   H     0.02899   0.56078   0.83174   0.00000  Uiso   1.00
H261   H     0.08075   0.61974   0.91912   0.00000  Uiso   1.00
H262   H     0.11617   0.93790   0.94923   0.00000  Uiso   1.00
H263   H     0.08771   0.89480   0.85854   0.00000  Uiso   1.00
H264   H     0.18497   0.91113   0.90023   0.00000  Uiso   1.00
H265   H     1.01750   0.68119   0.83937   0.00000  Uiso   1.00
H266   H     0.91401   0.66360   0.86139   0.00000  Uiso   1.00
H267   H     0.94067   0.59906   0.90602   0.00000  Uiso   1.00
H268   H    -0.09509   0.67983   0.62781   0.00000  Uiso   1.00
H269   H    -0.21655   0.65155   0.63778   0.00000  Uiso   1.00
H270   H    -0.11903   0.74017   0.70128   0.00000  Uiso   1.00
H271   H     0.05352   0.74648   0.64508   0.00000  Uiso   1.00
H272   H     0.04002   0.78866   0.73772   0.00000  Uiso   1.00
H273   H     0.02406   0.67534   0.71687   0.00000  Uiso   1.00
H274   H     0.28749   0.98953   0.67834   0.00000  Uiso   1.00
H275   H     0.30532   0.98234   0.77257   0.00000  Uiso   1.00
H276   H     0.19403   0.95250   0.75140   0.00000  Uiso   1.00
H277   H     0.21771   0.78619   0.58173   0.00000  Uiso   1.00
H278   H     0.24317   0.72171   0.63586   0.00000  Uiso   1.00
H279   H     0.32818   0.85511   0.63028   0.00000  Uiso   1.00
H280   H     0.38212   0.09978   1.04241   0.00000  Uiso   1.00
H281   H     0.38649   0.00294   1.06280   0.00000  Uiso   1.00
H282   H     0.41109   0.04687   0.96925   0.00000  Uiso   1.00
H283   H     0.68852   0.28051   0.98642   0.00000  Uiso   1.00
H284   H     0.58803   0.25835   0.94633   0.00000  Uiso   1.00
H285   H     0.61986   0.17864   0.93213   0.00000  Uiso   1.00
H286   H     0.36612   0.08497   0.45807   0.00000  Uiso   1.00
H287   H     0.29467   0.11765   0.41771   0.00000  Uiso   1.00
H288   H     0.27596   0.08001   0.50735   0.00000  Uiso   1.00
H289   H     0.30803   0.23904   0.57820   0.00000  Uiso   1.00
H290   H     0.31965   0.28277   0.48662   0.00000  Uiso   1.00
H291   H     0.40839   0.36779   0.55036   0.00000  Uiso   1.00
H292   H     0.43066   0.05423   0.33632   0.00000  Uiso   1.00
H293   H     0.46222   0.06906   0.23469   0.00000  Uiso   1.00
H294   H     0.41575   0.13087   0.28527   0.00000  Uiso   1.00
H295   H     0.59163   0.24113   0.44587   0.00000  Uiso   1.00
H296   H     0.65817   0.20380   0.40065   0.00000  Uiso   1.00
H297   H     0.53523   0.11870   0.42003   0.00000  Uiso   1.00
H298   H     0.65351   0.11153   0.85862   0.00000  Uiso   1.00
H299   H     0.63910   0.01142   0.82009   0.00000  Uiso   1.00
H300   H     0.59898   0.00998   0.91366   0.00000  Uiso   1.00
H301   H     0.47405   0.95030   0.69888   0.00000  Uiso   1.00
H302   H     0.37224   0.84459   0.74476   0.00000  Uiso   1.00
H303   H     0.49170   0.88073   0.74873   0.00000  Uiso   1.00
H304   H     0.44004   0.08670   0.85055   0.00000  Uiso   1.00
H305   H     0.46194   0.08046   0.75431   0.00000  Uiso   1.00
H306   H     0.56129   0.15598   0.81601   0.00000  Uiso   1.00
H307   H     0.48845   0.07700   0.53218   0.00000  Uiso   1.00
H308   H     0.38128   0.04584   0.57634   0.00000  Uiso   1.00
H309   H     0.46728   0.05573   0.63149   0.00000  Uiso   1.00
H310   H     0.67003   0.37036   0.65131   0.00000  Uiso   1.00
H311   H     0.67736   0.28624   0.58534   0.00000  Uiso   1.00
H312   H     0.64247   0.26731   0.68406   0.00000  Uiso   1.00
H313   H     0.45795   0.29002   0.17191   0.00000  Uiso   1.00
H314   H     0.33988   0.21735   0.13607   0.00000  Uiso   1.00
H315   H     0.37522   0.31827   0.18399   0.00000  Uiso   1.00
H316   H     0.57257   0.29273   0.09244   0.00000  Uiso   1.00
H317   H     0.64396   0.27040   0.13506   0.00000  Uiso   1.00
H318   H     0.51984   0.20824   0.16663   0.00000  Uiso   1.00
H319   H     0.34798   0.18877  -0.00835   0.00000  Uiso   1.00
H320   H     0.47096   0.25134  -0.03229   0.00000  Uiso   1.00
H321   H     0.40750   0.28157  -0.07438   0.00000  Uiso   1.00
H322   H     0.59665   0.51099   0.04032   0.00000  Uiso   1.00
H323   H     0.59627   0.42286  -0.01736   0.00000  Uiso   1.00
H324   H     0.60870   0.43470   0.08611   0.00000  Uiso   1.00
H325   H     0.45202   0.45207   0.87213   0.00000  Uiso   1.00
H326   H     0.55226   0.51314   0.92957   0.00000  Uiso   1.00
H327   H     0.52263   0.58182   0.89160   0.00000  Uiso   1.00
H328   H     0.27764   0.38518   0.60890   0.00000  Uiso   1.00
H329   H     0.39159   0.49656   0.59455   0.00000  Uiso   1.00
H330   H     0.32521   0.43419   0.51160   0.00000  Uiso   1.00
H331   H     0.62759   0.63985   0.22518   0.00000  Uiso   1.00
H332   H     0.55378   0.54085   0.15251   0.00000  Uiso   1.00
H333   H     0.63718   0.54508   0.19874   0.00000  Uiso   1.00
H334   H     0.27910   0.20658   0.74060   0.00000  Uiso   1.00
H335   H     0.33534   0.26909   0.82528   0.00000  Uiso   1.00
H336   H     0.29408   0.14917   0.80879   0.00000  Uiso   1.00
H337   H     0.54803   0.41530   0.65147   0.00000  Uiso   1.00
H338   H     0.52633   0.45938   0.73630   0.00000  Uiso   1.00
H339   H     0.43050   0.38396   0.67106   0.00000  Uiso   1.00
H340   H     0.49351   0.25115   0.84867   0.00000  Uiso   1.00
H341   H     0.54656   0.37794   0.84007   0.00000  Uiso   1.00
H342   H     0.59471   0.32532   0.79780   0.00000  Uiso   1.00
H343   H     0.17826   0.25373   0.86769   0.00000  Uiso   1.00
H344   H     0.12396   0.28464   0.81645   0.00000  Uiso   1.00
H345   H     0.11487   0.29013   0.91609   0.00000  Uiso   1.00
H346   H     0.21931   0.52464   0.83648   0.00000  Uiso   1.00
H347   H     0.30742   0.59318   0.89730   0.00000  Uiso   1.00
H348   H     0.19303   0.48432   0.93162   0.00000  Uiso   1.00
H349   H     0.41676   0.80849   0.32000   0.00000  Uiso   1.00
H350   H     0.52166   0.91056   0.28206   0.00000  Uiso   1.00
H351   H     0.46357   0.79045   0.23508   0.00000  Uiso   1.00
H352   H     0.39873   0.68465   0.57724   0.00000  Uiso   1.00
H353   H     0.28966   0.65482   0.53143   0.00000  Uiso   1.00
H354   H     0.37223   0.63637   0.48841   0.00000  Uiso   1.00
H355   H     0.52798   0.74019   0.47934   0.00000  Uiso   1.00
H356   H     0.59934   0.71460   0.51418   0.00000  Uiso   1.00
H357   H     0.47912   0.60847   0.50237   0.00000  Uiso   1.00
H358   H     0.52361   0.71334   0.26685   0.00000  Uiso   1.00
H359   H     0.52889   0.77646   0.34820   0.00000  Uiso   1.00
H360   H     0.43049   0.64805   0.33525   0.00000  Uiso   1.00
H361   H     0.72141   0.83681   0.38977   0.00000  Uiso   1.00
H362   H     0.70855   0.75049   0.31778   0.00000  Uiso   1.00
H363   H     0.72422   0.74234   0.41662   0.00000  Uiso   1.00
H364   H     0.31193   0.45127   0.73637   0.00000  Uiso   1.00
H365   H     0.35066   0.39387   0.78224   0.00000  Uiso   1.00
H366   H     0.41166   0.52865   0.79693   0.00000  Uiso   1.00
H367   H     0.38207   0.60788   0.70635   0.00000  Uiso   1.00
H368   H     0.39303   0.71332   0.69205   0.00000  Uiso   1.00
H369   H     0.38364   0.67563   0.78253   0.00000  Uiso   1.00
H370   H     0.64375   0.70918   0.70126   0.00000  Uiso   1.00
H371   H     0.53170   0.60913   0.67822   0.00000  Uiso   1.00
H372   H     0.56354   0.64084   0.77340   0.00000  Uiso   1.00
H373   H     0.66441   0.90472   0.68280   0.00000  Uiso   1.00
H374   H     0.55441   0.86133   0.64489   0.00000  Uiso   1.00
H375   H     0.61768   0.81881   0.59794   0.00000  Uiso   1.00
H376   H     1.00758   0.34880   0.88878   0.00000  Uiso   1.00
H377   H     1.00195   0.30075   0.97449   0.00000  Uiso   1.00
H378   H     1.04863   0.42962   0.97465   0.00000  Uiso   1.00
H379   H     0.73288   0.17363   0.00711   0.00000  Uiso   1.00
H380   H     0.81699   0.15050   0.00206   0.00000  Uiso   1.00
H381   H     0.78230   0.17185  -0.08273   0.00000  Uiso   1.00
H382   H     0.90435   0.40216   0.85974   0.00000  Uiso   1.00
H383   H     0.84341   0.42581   0.92682   0.00000  Uiso   1.00
H384   H     0.78449   0.31279   0.87617   0.00000  Uiso   1.00
H385   H     0.73392   0.06442   0.43375   0.00000  Uiso   1.00
H386   H     0.79664   0.02270   0.38962   0.00000  Uiso   1.00
H387   H     0.69846  -0.00123   0.35295   0.00000  Uiso   1.00
H388   H     0.91747   0.08826   0.91227   0.00000  Uiso   1.00
H389   H     0.95221   0.19128   0.85830   0.00000  Uiso   1.00
H390   H     0.97724   0.11286   0.82189   0.00000  Uiso   1.00
H391   H     0.91528   1.01523   0.72123   0.00000  Uiso   1.00
H392   H     0.81243   0.97772   0.67661   0.00000  Uiso   1.00
H393   H     0.79718   0.89208   0.73989   0.00000  Uiso   1.00
H394   H     0.70213   0.04205   0.59577   0.00000  Uiso   1.00
H395   H     0.67106   0.11784   0.63530   0.00000  Uiso   1.00
H396   H     0.64504   0.01940   0.68190   0.00000  Uiso   1.00
H397   H     0.86007   0.29110   0.78046   0.00000  Uiso   1.00
H398   H     0.73456   0.22946   0.75345   0.00000  Uiso   1.00
H399   H     0.81947   0.30795   0.69446   0.00000  Uiso   1.00
H400   H     0.94560   0.68672   1.16353   0.00000  Uiso   1.00
H401   H     0.99756   0.64532   1.10544   0.00000  Uiso   1.00
H402   H     1.00110   0.64189   1.20430   0.00000  Uiso   1.00
H403   H     0.79257   0.49919   0.29312   0.00000  Uiso   1.00
H404   H     0.69829   0.45148   0.22632   0.00000  Uiso   1.00
H405   H     0.78592   0.58873   0.25479   0.00000  Uiso   1.00
H406   H     0.75963   0.41116   1.07259   0.00000  Uiso   1.00
H407   H     0.85062   0.51697   1.02661   0.00000  Uiso   1.00
H408   H     0.75223   0.50772   1.05646   0.00000  Uiso   1.00
H409   H     0.72138   0.19484   0.49351   0.00000  Uiso   1.00
H410   H     0.78748   0.26140   0.57637   0.00000  Uiso   1.00
H411   H     0.79968   0.17703   0.52806   0.00000  Uiso   1.00
H412   H     0.76747   0.36196   0.46168   0.00000  Uiso   1.00
H413   H     0.82174   0.37491   0.37500   0.00000  Uiso   1.00
H414   H     0.89739   0.47064   0.44091   0.00000  Uiso   1.00
H415   H     0.80968   0.53516   0.50915   0.00000  Uiso   1.00
H416   H     0.70181   0.42120   0.50309   0.00000  Uiso   1.00
H417   H     0.71059   0.50071   0.58070   0.00000  Uiso   1.00
H418   H     0.55585   0.46848   0.54322   0.00000  Uiso   1.00
H419   H     0.54991   0.53634   0.47963   0.00000  Uiso   1.00
H420   H     0.62564   0.60037   0.55398   0.00000  Uiso   1.00
H421   H     0.82791   0.84979   0.11393   0.00000  Uiso   1.00
H422   H     0.73432   0.72269   0.13441   0.00000  Uiso   1.00
H423   H     0.79428   0.82709   0.20991   0.00000  Uiso   1.00
H424   H     0.70915   0.85546   0.01336   0.00000  Uiso   1.00
H425   H     0.80576   0.96603   0.06407   0.00000  Uiso   1.00
H426   H     0.70413   0.95098   0.06723   0.00000  Uiso   1.00
H427   H     0.68333   0.87439   0.27742   0.00000  Uiso   1.00
H428   H     0.64979   0.92268   0.21874   0.00000  Uiso   1.00
H429   H     0.76776   0.96583   0.21671   0.00000  Uiso   1.00
H430   H     0.90004   0.75033   0.97643   0.00000  Uiso   1.00
H431   H     0.97279   0.81686   1.05606   0.00000  Uiso   1.00
H432   H     0.90201   0.68255   1.04688   0.00000  Uiso   1.00
H433   H     0.66932   0.61573   0.80914   0.00000  Uiso   1.00
H434   H     0.80212   0.69199   0.80374   0.00000  Uiso   1.00
H435   H     0.75624   0.74031   0.76956   0.00000  Uiso   1.00
H436   H     0.77868   0.75269   0.01474   0.00000  Uiso   1.00
H437   H     0.70755   0.62483  -0.03352   0.00000  Uiso   1.00
H438   H     0.64322   0.66349   0.00438   0.00000  Uiso   1.00
H439   H     0.88875   0.89928  -0.16013   0.00000  Uiso   1.00
H440   H     0.90710   0.86446  -0.07692   0.00000  Uiso   1.00
H441   H     0.86129   0.92620  -0.06906   0.00000  Uiso   1.00
H442   H     0.89543   0.58994   0.39656   0.00000  Uiso   1.00
H443   H     1.01006   0.70517   0.41085   0.00000  Uiso   1.00
H444   H     0.96085   0.68853   0.32362   0.00000  Uiso   1.00
H445   H     1.01240   0.88734   0.36219   0.00000  Uiso   1.00
H446   H     0.89835   0.85960   0.38055   0.00000  Uiso   1.00
H447   H     0.91685   0.81073   0.29793   0.00000  Uiso   1.00
loop_
_geom_bond_atom_site_label_1
_geom_bond_atom_site_label_2
_geom_bond_distance
_geom_bond_site_symmetry_2
_ccdc_geom_bond_type
Si1    C52     1.785   .     S
Si1    O55     1.604   .     S
Si1    C53     1.813   1_545 S
Si1    O79     1.598   1_545 S
Si2    O60     1.580   .     S
Si2    O63     1.561   .     S
Si2    C54     1.761   1_455 S
Si2    O157    1.589   1_455 S
Si3    O55     1.637   .     S
Si3    O64     1.606   .     S
Si3    C56     1.885   1_554 S
Si3    C57     1.877   1_554 S
Si4    C58     1.933   .     S
Si4    O67     1.620   .     S
Si4    C59     1.843   1_455 S
Si4    O162    1.611   1_455 S
Si5    O60     1.593   .     S
Si5    C61     1.941   .     S
Si5    C62     1.870   .     S
Si5    O68     1.581   .     S
Si6    O63     1.638   .     S
Si6    O64     1.639   .     S
Si6    C65     1.830   .     S
Si6    O112    1.641   .     S
Si7    O71     1.597   .     S
Si7    O76     1.604   .     S
Si7    C66     1.789   1_455 S
Si7    O168    1.629   1_455 S
Si8    O67     1.647   .     S
Si8    O68     1.571   .     S
Si8    O72     1.655   .     S
Si8    O118    1.569   .     S
Si9    C69     1.875   .     S
Si9    O74     1.611   .     S
Si9    C70     1.867   1_455 S
Si9    O176    1.650   1_455 S
Si10   O71     1.565   .     S
Si10   O72     1.648   .     S
Si10   C73     1.750   .     S
Si10   O113    1.633   .     S
Si11   O74     1.634   .     S
Si11   C75     1.783   .     S
Si11   O86     1.659   .     S
Si11   O120    1.596   .     S
Si12   O76     1.616   .     S
Si12   C77     1.889   .     S
Si12   O78     1.616   .     S
Si12   O133    1.601   .     S
Si13   O78     1.616   .     S
Si13   O79     1.616   .     S
Si13   O87     1.647   1_554 S
Si13   O151    1.640   1_554 S
Si14   C80     1.934   .     S
Si14   C90     1.900   .     S
Si14   C81     1.906   1_455 S
Si14   O191    1.586   1_455 S
Si15   C82     1.756   .     S
Si15   C83     1.904   .     S
Si15   C84     1.808   .     S
Si15   O136    1.622   .     S
Si16   C85     1.860   .     S
Si16   O86     1.605   .     S
Si16   O92     1.602   .     S
Si16   O148    1.599   .     S
Si17   O87     1.581   .     S
Si17   C88     1.857   .     S
Si17   C89     1.860   1_455 S
Si17   C184    1.839   1_455 S
Si18   C91     1.825   .     S
Si18   O92     1.594   .     S
Si18   C93     1.855   .     S
Si18   C94     1.913   .     S
Si19   O95     1.582   .     S
Si19   O152    1.665   .     S
Si19   O135    1.587   1_545 S
Si19   O138    1.609   1_545 S
Si20   O95     1.578   .     S
Si20   C109    1.882   .     S
Si20   C96     1.791   1_554 S
Si20   C97     1.816   1_554 S
Si21   C98     1.862   .     S
Si21   C99     1.852   .     S
Si21   O104    1.617   .     S
Si21   O116    1.575   .     S
Si22   C100    1.844   .     S
Si22   C101    1.889   .     S
Si22   O117    1.638   .     S
Si22   O153    1.631   .     S
Si23   C102    1.897   .     S
Si23   C105    1.844   .     S
Si23   C103    1.898   1_545 S
Si23   O150    1.552   1_545 S
Si24   O104    1.582   .     S
Si24   C106    1.843   .     S
Si24   C107    1.859   .     S
Si24   O125    1.579   .     S
Si25   C108    1.945   .     S
Si25   C110    1.834   .     S
Si25   C111    1.802   .     S
Si25   O114    1.603   .     S
Si26   O112    1.645   .     S
Si26   O113    1.611   .     S
Si26   O121    1.661   .     S
Si26   O131    1.717   .     S
Si27   O114    1.585   .     S
Si27   O132    1.599   .     S
Si27   C115    1.831   1_554 S
Si27   O129    1.590   1_554 S
Si28   O116    1.626   .     S
Si28   O117    1.621   .     S
Si28   O122    1.686   .     S
Si28   O177    1.563   .     S
Si29   O118    1.558   .     S
Si29   C119    1.862   .     S
Si29   O120    1.579   .     S
Si29   C139    1.828   .     S
Si30   O121    1.654   .     S
Si30   O122    1.615   .     S
Si30   C123    1.833   .     S
Si30   O141    1.585   .     S
Si31   C124    1.877   .     S
Si31   O125    1.578   .     S
Si31   C126    1.894   .     S
Si31   C127    1.888   .     S
Si32   C128    1.819   .     S
Si32   O129    1.546   .     S
Si32   C130    1.885   .     S
Si32   C144    1.835   .     S
Si33   O131    1.704   .     S
Si33   O132    1.598   .     S
Si33   O137    1.646   .     S
Si33   O180    1.653   .     S
Si34   O133    1.596   .     S
Si34   C134    1.826   .     S
Si34   O135    1.654   .     S
Si34   O136    1.632   .     S
Si35   O137    1.595   .     S
Si35   O138    1.598   .     S
Si35   O149    1.680   1_554 S
Si35   O195    1.648   1_554 S
Si36   C140    1.893   .     S
Si36   O141    1.533   .     S
Si36   C142    1.849   .     S
Si36   C143    1.868   .     S
Si37   C145    1.858   .     S
Si37   C146    1.810   .     S
Si37   C147    1.834   .     S
Si37   O192    1.584   .     S
Si38   O148    1.605   .     S
Si38   O149    1.619   .     S
Si38   O150    1.618   .     S
Si38   O151    1.599   .     S
Si39   O152    1.645   .     S
Si39   O153    1.621   .     S
Si39   O158    1.660   .     S
Si39   O166    1.623   .     S
Si40   C155    1.854   .     S
Si40   O167    1.592   .     S
Si40   C154    1.849   1_554 S
Si40   C156    1.847   1_554 S
Si41   O157    1.615   .     S
Si41   O158    1.654   .     S
Si41   C159    1.893   .     S
Si41   O174    1.679   .     S
Si42   C160    1.869   .     S
Si42   O164    1.582   .     S
Si42   C161    1.850   1_545 S
Si42   O194    1.610   1_545 S
Si43   O162    1.585   .     S
Si43   C163    1.853   .     S
Si43   O164    1.607   .     S
Si43   C165    1.892   .     S
Si44   O166    1.587   .     S
Si44   O167    1.600   .     S
Si44   O168    1.604   .     S
Si44   O170    1.662   .     S
Si45   O170    1.599   .     S
Si45   C171    1.896   .     S
Si45   C169    1.825   1_554 S
Si45   C172    1.851   1_554 S
Si46   C173    1.822   .     S
Si46   O174    1.577   .     S
Si46   C175    1.865   .     S
Si46   O176    1.644   .     S
Si47   O177    1.609   .     S
Si47   C178    1.880   .     S
Si47   C179    1.851   .     S
Si47   O188    1.625   .     S
Si48   O180    1.602   .     S
Si48   C181    1.863   .     S
Si48   C182    1.942   .     S
Si48   C183    1.877   .     S
Si49   C186    1.881   .     S
Si49   C187    1.855   .     S
Si49   C185    1.862   1_554 S
Si49   O193    1.624   1_554 S
Si50   O188    1.582   .     S
Si50   C189    1.820   .     S
Si50   C190    1.877   .     S
Si50   O191    1.549   .     S
Si51   O192    1.589   .     S
Si51   O193    1.616   .     S
Si51   O194    1.635   .     S
Si51   O195    1.667   .     S
C52    H196    1.055   .     S
C52    H197    1.102   .     S
C52    H198    1.123   .     S
C53    H199    1.139   .     S
C53    H200    1.094   .     S
C53    H201    1.076   .     S
C53    Si1     1.813   1_565 S
C54    H202    1.086   .     S
C54    H203    1.078   .     S
C54    H204    1.074   .     S
C54    Si2     1.761   1_655 S
C56    H205    1.096   .     S
C56    H206    1.136   .     S
C56    H207    1.123   .     S
C56    Si3     1.885   1_556 S
C57    H208    1.126   .     S
C57    H209    1.121   .     S
C57    H210    1.096   .     S
C57    Si3     1.877   1_556 S
C58    H211    1.126   .     S
C58    H212    1.130   .     S
C58    H213    1.172   .     S
C59    H214    1.127   .     S
C59    H215    1.101   .     S
C59    H216    1.108   .     S
C59    Si4     1.843   1_655 S
C61    H217    1.082   .     S
C61    H218    1.063   .     S
C61    H219    1.085   .     S
C62    H220    1.034   .     S
C62    H221    1.058   .     S
C62    H222    1.126   .     S
C65    H223    1.048   .     S
C65    H224    1.101   .     S
C65    H225    1.142   .     S
C66    H226    1.108   .     S
C66    H227    1.115   .     S
C66    H228    1.057   .     S
C66    Si7     1.789   1_655 S
C69    H229    1.143   .     S
C69    H230    1.067   .     S
C69    H231    1.097   .     S
C70    H232    1.091   .     S
C70    H233    1.101   .     S
C70    H234    1.127   .     S
C70    Si9     1.867   1_655 S
C73    H235    1.106   .     S
C73    H236    1.154   .     S
C73    H237    1.145   .     S
C75    H238    1.106   .     S
C75    H239    1.082   .     S
C75    H240    1.128   .     S
C77    H241    1.110   .     S
C77    H242    1.093   .     S
C77    H243    1.091   .     S
O79    Si1     1.598   1_565 S
C80    H244    1.099   .     S
C80    H245    1.091   .     S
C80    H246    1.144   .     S
C81    H247    1.101   .     S
C81    H248    1.108   .     S
C81    H249    1.104   .     S
C81    Si14    1.906   1_655 S
C82    H250    1.144   .     S
C82    H251    1.116   .     S
C82    H252    1.124   .     S
C83    H253    1.113   .     S
C83    H254    1.103   .     S
C83    H255    1.117   .     S
C84    H256    1.091   .     S
C84    H257    1.102   .     S
C84    H258    1.118   .     S
C85    H259    1.118   .     S
C85    H260    1.102   .     S
C85    H261    1.070   .     S
O87    Si13    1.647   1_556 S
C88    H262    1.059   .     S
C88    H263    1.119   .     S
C88    H264    1.147   .     S
C89    H265    1.060   .     S
C89    H266    1.052   .     S
C89    H267    1.044   .     S
C89    Si17    1.860   1_655 S
C90    H268    1.150   .     S
C90    H269    1.154   .     S
C90    H270    1.151   .     S
C91    H271    1.063   .     S
C91    H272    1.197   .     S
C91    H273    1.092   .     S
C93    H274    1.126   .     S
C93    H275    1.081   .     S
C93    H276    1.144   .     S
C94    H277    1.094   .     S
C94    H278    1.127   .     S
C94    H279    1.161   .     S
C96    H280    1.098   .     S
C96    H281    1.096   .     S
C96    H282    1.148   .     S
C96    Si20    1.791   1_556 S
C97    H283    1.101   .     S
C97    H284    1.109   .     S
C97    H285    1.037   .     S
C97    Si20    1.816   1_556 S
C98    H286    1.104   .     S
C98    H287    1.104   .     S
C98    H288    1.066   .     S
C99    H289    1.154   .     S
C99    H290    1.064   .     S
C99    H291    1.104   .     S
C100   H292    1.148   .     S
C100   H293    1.118   .     S
C100   H294    1.127   .     S
C101   H295    1.095   .     S
C101   H296    1.088   .     S
C101   H297    1.094   .     S
C102   H298    1.065   .     S
C102   H299    1.127   .     S
C102   H300    1.072   .     S
C103   H301    1.055   .     S
C103   H302    1.121   .     S
C103   H303    1.075   .     S
C103   Si23    1.898   1_565 S
C105   H304    1.053   .     S
C105   H305    1.114   .     S
C105   H306    1.107   .     S
C106   H307    1.110   .     S
C106   H308    1.156   .     S
C106   H309    1.130   .     S
C107   H310    1.092   .     S
C107   H311    1.148   .     S
C107   H312    1.123   .     S
C108   H313    1.110   .     S
C108   H314    1.058   .     S
C108   H315    1.118   .     S
C109   H316    1.100   .     S
C109   H317    1.098   .     S
C109   H318    1.084   .     S
C110   H319    1.103   .     S
C110   H320    1.131   .     S
C110   H321    1.108   .     S
C111   H322    1.091   .     S
C111   H323    1.119   .     S
C111   H324    1.107   .     S
C115   H325    1.099   .     S
C115   H326    1.064   .     S
C115   H327    1.070   .     S
C115   Si27    1.831   1_556 S
C119   H328    1.104   .     S
C119   H329    1.125   .     S
C119   H330    1.113   .     S
C123   H331    1.144   .     S
C123   H332    1.111   .     S
C123   H333    1.116   .     S
C124   H334    1.092   .     S
C124   H335    1.127   .     S
C124   H336    1.091   .     S
C126   H337    1.142   .     S
C126   H338    1.049   .     S
C126   H339    1.113   .     S
C127   H340    1.042   .     S
C127   H341    1.089   .     S
C127   H342    1.082   .     S
C128   H343    1.050   .     S
C128   H344    1.127   .     S
C128   H345    1.130   .     S
O129   Si27    1.590   1_556 S
C130   H346    1.110   .     S
C130   H347    1.080   .     S
C130   H348    1.050   .     S
C134   H349    1.095   .     S
C134   H350    1.122   .     S
C134   H351    1.102   .     S
O135   Si19    1.587   1_565 S
O138   Si19    1.609   1_565 S
C139   H352    1.138   .     S
C139   H353    1.145   .     S
C139   H354    1.107   .     S
C140   H355    1.125   .     S
C140   H356    1.147   .     S
C140   H357    1.074   .     S
C142   H358    1.099   .     S
C142   H359    1.098   .     S
C142   H360    1.121   .     S
C143   H361    1.115   .     S
C143   H362    1.103   .     S
C143   H363    1.113   .     S
C144   H364    1.108   .     S
C144   H365    1.209   .     S
C144   H366    1.096   .     S
C145   H367    1.080   .     S
C145   H368    1.084   .     S
C145   H369    1.115   .     S
C146   H370    1.110   .     S
C146   H371    1.076   .     S
C146   H372    1.105   .     S
C147   H373    1.105   .     S
C147   H374    1.138   .     S
C147   H375    1.165   .     S
O149   Si35    1.680   1_556 S
O150   Si23    1.552   1_565 S
O151   Si13    1.640   1_556 S
C154   H376    1.134   .     S
C154   H377    1.109   .     S
C154   H378    1.074   .     S
C154   Si40    1.849   1_556 S
C155   H379    1.108   .     S
C155   H380    1.111   .     S
C155   H381    1.090   .     S
C156   H382    1.088   .     S
C156   H383    1.122   .     S
C156   H384    1.120   .     S
C156   Si40    1.847   1_556 S
O157   Si2     1.589   1_655 S
C159   H385    1.071   .     S
C159   H386    1.056   .     S
C159   H387    1.122   .     S
C160   H388    1.122   .     S
C160   H389    1.104   .     S
C160   H390    1.110   .     S
C161   H391    1.127   .     S
C161   H392    1.120   .     S
C161   H393    1.114   .     S
C161   Si42    1.850   1_565 S
O162   Si4     1.611   1_655 S
C163   H394    1.095   .     S
C163   H395    1.081   .     S
C163   H396    1.072   .     S
C165   H397    1.098   .     S
C165   H398    1.155   .     S
C165   H399    1.069   .     S
O168   Si7     1.629   1_655 S
C169   H400    1.057   .     S
C169   H401    1.089   .     S
C169   H402    1.108   .     S
C169   Si45    1.825   1_556 S
C171   H403    1.138   .     S
C171   H404    1.152   .     S
C171   H405    1.132   .     S
C172   H406    1.065   .     S
C172   H407    1.039   .     S
C172   H408    1.125   .     S
C172   Si45    1.851   1_556 S
C173   H409    1.108   .     S
C173   H410    1.107   .     S
C173   H411    1.071   .     S
C175   H412    1.110   .     S
C175   H413    1.133   .     S
C175   H414    1.128   .     S
O176   Si9     1.650   1_655 S
C178   H415    1.114   .     S
C178   H416    1.100   .     S
C178   H417    1.157   .     S
C179   H418    1.111   .     S
C179   H419    1.084   .     S
C179   H420    1.112   .     S
C181   H421    1.122   .     S
C181   H422    1.117   .     S
C181   H423    1.106   .     S
C182   H424    1.142   .     S
C182   H425    1.073   .     S
C182   H426    1.125   .     S
C183   H427    1.100   .     S
C183   H428    1.062   .     S
C183   H429    1.112   .     S
C184   H430    1.135   .     S
C184   H431    1.106   .     S
C184   H432    1.099   .     S
C184   Si17    1.839   1_655 S
C185   H433    1.148   .     S
C185   H434    1.121   .     S
C185   H435    1.058   .     S
C185   Si49    1.862   1_556 S
C186   H436    1.171   .     S
C186   H437    1.120   .     S
C186   H438    1.143   .     S
C187   H439    1.066   .     S
C187   H440    1.082   .     S
C187   H441    1.061   .     S
C189   H442    1.129   .     S
C189   H443    1.091   .     S
C189   H444    1.138   .     S
C190   H445    1.125   .     S
C190   H446    1.075   .     S
C190   H447    1.147   .     S
O191   Si14    1.586   1_655 S
O193   Si49    1.624   1_556 S
O194   Si42    1.610   1_565 S
O195   Si35    1.648   1_556 S
