data_333-11-11-14-15-30-19
_audit_creation_date              2025-03-07
_audit_creation_method            'Materials Studio'
_symmetry_space_group_name_H-M    'P1'
_symmetry_Int_Tables_number       1
_symmetry_cell_setting            triclinic
loop_
_symmetry_equiv_pos_as_xyz
  x,y,z
_cell_length_a                    16.1054
_cell_length_b                    16.8164
_cell_length_c                    20.6378
_cell_angle_alpha                 98.0392
_cell_angle_beta                  87.8605
_cell_angle_gamma                 121.0266
loop_
_atom_site_label
_atom_site_type_symbol
_atom_site_fract_x
_atom_site_fract_y
_atom_site_fract_z
_atom_site_U_iso_or_equiv
_atom_site_adp_type
_atom_site_occupancy
Si1    Si    0.16088   0.01098   0.07617   0.00000  Uiso   1.00
Si2    Si    0.17218   0.15956   0.00206   0.00000  Uiso   1.00
Si3    Si    0.15607   0.06010   0.51761   0.00000  Uiso   1.00
Si4    Si    0.00118   0.16577   0.66629   0.00000  Uiso   1.00
Si5    Si    0.11442   0.16848   0.43413   0.00000  Uiso   1.00
Si6    Si    0.16062  -0.01446   0.79911   0.00000  Uiso   1.00
Si7    Si    0.00540   0.16069   0.92010   0.00000  Uiso   1.00
Si8    Si    0.14343   0.14124   0.74060   0.00000  Uiso   1.00
Si9    Si    0.22994   0.33222   0.10315   0.00000  Uiso   1.00
Si10   Si   -0.08299   0.32254   0.26112   0.00000  Uiso   1.00
Si11   Si   -0.00822   0.48954   0.63344   0.00000  Uiso   1.00
Si12   Si    0.26265   0.60325   0.20270   0.00000  Uiso   1.00
Si13   Si    0.16488   0.30075   0.83927   0.00000  Uiso   1.00
Si14   Si   -0.02020   0.49848   0.91020   0.00000  Uiso   1.00
Si15   Si    0.06402   0.92028   0.19538   0.00000  Uiso   1.00
Si16   Si    0.14671   0.85206  -0.02158   0.00000  Uiso   1.00
Si17   Si    0.02793   0.87852   0.57022   0.00000  Uiso   1.00
Si18   Si   -0.00136   0.82870   0.87171   0.00000  Uiso   1.00
Si19   Si    0.18304   0.89887   0.66271   0.00000  Uiso   1.00
Si20   Si    0.48885  -0.04539   0.04265   0.00000  Uiso   1.00
Si21   Si    0.48516   0.11712  -0.01590   0.00000  Uiso   1.00
Si22   Si    0.44479   0.09793   0.46199   0.00000  Uiso   1.00
Si23   Si    0.29686   0.18175   0.63186   0.00000  Uiso   1.00
Si24   Si    0.31330   0.11947   0.90570   0.00000  Uiso   1.00
Si25   Si    0.39086   0.54326   0.12072   0.00000  Uiso   1.00
Si26   Si    0.58114   0.51874  -0.02036   0.00000  Uiso   1.00
Si27   Si    0.52823   0.55298   0.22821   0.00000  Uiso   1.00
Si28   Si    0.52382   0.66224   0.01644   0.00000  Uiso   1.00
Si29   Si    0.43486   0.76554  -0.03496   0.00000  Uiso   1.00
Si30   Si    0.33082   0.95071   0.55632   0.00000  Uiso   1.00
Si31   Si    0.41838   0.56615   0.56754   0.00000  Uiso   1.00
Si32   Si    0.54165   0.77354   0.61349   0.00000  Uiso   1.00
Si33   Si    0.80925  -0.01501   0.04055   0.00000  Uiso   1.00
Si34   Si    0.63884   0.09115   0.15383   0.00000  Uiso   1.00
Si35   Si    0.83469   0.16203  -0.00311   0.00000  Uiso   1.00
Si36   Si    0.70368   0.13282   0.65893   0.00000  Uiso   1.00
Si37   Si    0.84712   0.01943   0.82712   0.00000  Uiso   1.00
Si38   Si    0.67318   0.16933   0.91078   0.00000  Uiso   1.00
Si39   Si    0.85662   0.17539   0.75980   0.00000  Uiso   1.00
Si40   Si    0.82125   0.26929   0.12484   0.00000  Uiso   1.00
Si41   Si    0.47528   0.40552   0.31929   0.00000  Uiso   1.00
Si42   Si    0.78606   0.42431   0.11413   0.00000  Uiso   1.00
Si43   Si    0.93991   0.38980   0.49780   0.00000  Uiso   1.00
Si44   Si    0.82055   0.32488   0.83299   0.00000  Uiso   1.00
Si45   Si    0.65466   0.59229   0.74072   0.00000  Uiso   1.00
Si46   Si    0.83645   0.45565   0.73513   0.00000  Uiso   1.00
Si47   Si    0.66119   0.82889   0.10882   0.00000  Uiso   1.00
Si48   Si    0.85420   0.84981  -0.04535   0.00000  Uiso   1.00
Si49   Si    0.96045   0.74971   0.43538   0.00000  Uiso   1.00
Si50   Si    0.60153   0.82213   0.47727   0.00000  Uiso   1.00
Si51   Si    0.86537   0.65300   0.77438   0.00000  Uiso   1.00
C52    C     0.26651   0.09814   0.12962   0.00000  Uiso   1.00
O53    O     0.13213   0.06836   0.03874   0.00000  Uiso   1.00
C54    C     0.17404   0.99589   0.44330   0.00000  Uiso   1.00
C55    C     0.09914   0.26677   0.62947   0.00000  Uiso   1.00
C56    C     0.92020   0.07646   0.59675   0.00000  Uiso   1.00
C57    C    -0.01995   0.10266   0.40954   0.00000  Uiso   1.00
O58    O     0.12241   0.12411   0.49442   0.00000  Uiso   1.00
C59    C     0.15819   0.29603   0.45562   0.00000  Uiso   1.00
C60    C     0.18968   0.16522   0.36181   0.00000  Uiso   1.00
O61    O     0.08102   0.15541   0.96627   0.00000  Uiso   1.00
O62    O     0.04516   0.12236   0.70982   0.00000  Uiso   1.00
O63    O     0.13196   0.06094   0.78428   0.00000  Uiso   1.00
C64    C     0.25034   0.31906   0.18829   0.00000  Uiso   1.00
O65    O     0.23425   0.25706   0.05196   0.00000  Uiso   1.00
C66    C     0.11279   0.32474   0.10008   0.00000  Uiso   1.00
C67    C    -0.06864   0.44044   0.27668   0.00000  Uiso   1.00
C68    C     0.81874   0.25729   0.32005   0.00000  Uiso   1.00
C69    C     0.12031   0.52231   0.65530   0.00000  Uiso   1.00
C70    C     0.00319   0.59493   0.60447   0.00000  Uiso   1.00
C71    C     0.01517   0.30410   0.27891   0.00000  Uiso   1.00
C72    C     0.20578   0.53463   0.27043   0.00000  Uiso   1.00
C73    C     0.31909   0.72863   0.24262   0.00000  Uiso   1.00
C74    C     0.18004   0.58373   0.13457   0.00000  Uiso   1.00
O75    O     0.06486   0.23200   0.86810   0.00000  Uiso   1.00
O76    O     0.18958   0.23770   0.78670   0.00000  Uiso   1.00
C77    C     0.15652   0.39562   0.80740   0.00000  Uiso   1.00
C78    C     0.26654   0.36764   0.90062   0.00000  Uiso   1.00
C79    C     0.04468   0.49074   0.97907   0.00000  Uiso   1.00
C80    C     0.06070   0.54825   0.84102   0.00000  Uiso   1.00
C81    C     0.18299   0.95472   0.23957   0.00000  Uiso   1.00
O82    O     0.07997   0.95084   0.12345   0.00000  Uiso   1.00
C83    C     1.01744   0.98977   0.24634   0.00000  Uiso   1.00
C84    C     0.97421   0.79477   0.19872   0.00000  Uiso   1.00
C85    C     0.10936   0.76676   0.03801   0.00000  Uiso   1.00
O86    O     0.18700   0.95294   0.02094   0.00000  Uiso   1.00
C87    C     0.24311   0.84739   0.92177   0.00000  Uiso   1.00
O88    O     0.08223   0.98803   0.56117   0.00000  Uiso   1.00
C89    C     0.89854   0.84151   0.59282   0.00000  Uiso   1.00
O90    O     0.05781   0.82357   0.93068   0.00000  Uiso   1.00
O91    O     0.06771   0.88811   0.81653   0.00000  Uiso   1.00
O92    O     0.07847   0.86457   0.62745   0.00000  Uiso   1.00
C93    C     0.19871   0.80143   0.67821   0.00000  Uiso   1.00
O94    O     0.20257   0.96703   0.73304   0.00000  Uiso   1.00
C95    C     0.37607   0.90228   0.08889   0.00000  Uiso   1.00
O96    O     0.47854   0.01819  -0.00516   0.00000  Uiso   1.00
C97    C     0.50407   0.18697   0.06778   0.00000  Uiso   1.00
C98    C     0.44888   0.20916   0.47329   0.00000  Uiso   1.00
C99    C     0.41592   1.03360   0.37757   0.00000  Uiso   1.00
O100   O     0.25795   0.12531   0.55966   0.00000  Uiso   1.00
C101   C     0.39757   0.17182   0.66293   0.00000  Uiso   1.00
C102   C     0.34684   0.31215   0.63068   0.00000  Uiso   1.00
O103   O     0.21432   0.14732   0.68190   0.00000  Uiso   1.00
O104   O     0.24211   0.02908   0.85526   0.00000  Uiso   1.00
O105   O     0.38335   0.09969   0.95147   0.00000  Uiso   1.00
C106   C     0.39320   0.21082   0.85432   0.00000  Uiso   1.00
O107   O     0.24909   0.15871   0.94575   0.00000  Uiso   1.00
O108   O     0.31206   0.43697   0.08675   0.00000  Uiso   1.00
O109   O     0.34413   0.58766   0.17551   0.00000  Uiso   1.00
C110   C     0.69005   0.58041   0.04077   0.00000  Uiso   1.00
C111   C     0.48128   0.41218   1.00808   0.00000  Uiso   1.00
O112   O     0.47559   0.53636   0.15787   0.00000  Uiso   1.00
C113   C     0.50657   0.62940   0.28847   0.00000  Uiso   1.00
C114   C     0.66073   0.60421   0.21558   0.00000  Uiso   1.00
O115   O     0.43613   0.61602   0.06826   0.00000  Uiso   1.00
O116   O     0.54075   0.58376  -0.02566   0.00000  Uiso   1.00
O117   O     0.49842   0.71939  -0.03051   0.00000  Uiso   1.00
O118   O     0.49169   0.87189  -0.00230   0.00000  Uiso   1.00
C119   C     0.31862   0.69662   1.00463   0.00000  Uiso   1.00
C120   C     0.41902   0.76524   0.87859   0.00000  Uiso   1.00
C121   C     0.26217   0.83365   0.50575   0.00000  Uiso   1.00
O122   O     0.37162   1.03559   0.51233   0.00000  Uiso   1.00
O123   O     0.26438   0.95911   0.61382   0.00000  Uiso   1.00
C124   C     0.34395   0.57536   0.50595   0.00000  Uiso   1.00
C125   C     0.45944   0.48663   0.53471   0.00000  Uiso   1.00
C126   C     0.33520   0.51503   0.63355   0.00000  Uiso   1.00
C127   C     0.42951   0.94665   0.59162   0.00000  Uiso   1.00
C128   C     0.44604   0.77757   0.66215   0.00000  Uiso   1.00
O129   O     0.51035   0.66720   0.59141   0.00000  Uiso   1.00
C130   C     0.65667   0.83732   0.66360   0.00000  Uiso   1.00
C131   C     0.90635   0.05555   0.10787   0.00000  Uiso   1.00
O132   O     0.58046   0.01208   0.09357   0.00000  Uiso   1.00
C133   C     0.71814   0.06736   0.20155   0.00000  Uiso   1.00
C134   C     0.55668   0.11193   0.21155   0.00000  Uiso   1.00
O135   O     0.93767   0.19351   0.96197   0.00000  Uiso   1.00
O136   O     0.78664   0.06051   0.01830   0.00000  Uiso   1.00
C137   C     0.57647   0.12996   0.48194   0.00000  Uiso   1.00
C138   C     0.65808   0.02987   0.59956   0.00000  Uiso   1.00
C139   C     0.61658   0.16714   0.68951   0.00000  Uiso   1.00
O140   O     0.93590   0.06389   0.87696   0.00000  Uiso   1.00
C141   C     0.72607   0.93465   0.86002   0.00000  Uiso   1.00
C142   C     0.86666   0.95322   0.75527   0.00000  Uiso   1.00
C143   C     0.60823   0.05819   0.85625   0.00000  Uiso   1.00
O144   O     0.75749   0.17265   0.95527   0.00000  Uiso   1.00
O145   O     0.58211   0.17543   0.94556   0.00000  Uiso   1.00
O146   O     0.94379   0.19700   0.71386   0.00000  Uiso   1.00
O147   O     0.76062   0.12617   0.71636   0.00000  Uiso   1.00
O148   O     0.85087   0.10996   0.80828   0.00000  Uiso   1.00
O149   O     0.70932   0.19219   0.13045   0.00000  Uiso   1.00
O150   O     0.85947   0.23450   0.05838   0.00000  Uiso   1.00
O151   O     0.88520   0.28197   0.18423   0.00000  Uiso   1.00
C152   C     0.43870   0.28275   0.28680   0.00000  Uiso   1.00
C153   C     0.37562   0.40764   0.36828   0.00000  Uiso   1.00
C154   C     0.59096   0.46227   0.37041   0.00000  Uiso   1.00
O155   O     0.49070   0.45645   0.25655   0.00000  Uiso   1.00
C156   C     0.92483   0.57357   0.93942   0.00000  Uiso   1.00
C157   C     0.88470   0.55193   1.13422   0.00000  Uiso   1.00
O158   O     0.83469   0.36372   0.11998   0.00000  Uiso   1.00
C159   C     0.68945   0.39304   0.17464   0.00000  Uiso   1.00
C160   C     0.78872   0.22063   0.61057   0.00000  Uiso   1.00
C161   C     0.84401   0.41053   0.47227   0.00000  Uiso   1.00
C162   C     0.90499   0.26545   0.46496   0.00000  Uiso   1.00
C163   C     1.05318   0.47615   0.46373   0.00000  Uiso   1.00
O164   O     0.94541   0.40698   0.57592   0.00000  Uiso   1.00
O165   O     0.72500   0.25355   0.86594   0.00000  Uiso   1.00
O166   O     0.86913   0.26952   0.79982   0.00000  Uiso   1.00
O167   O     0.89574   0.39791   0.88880   0.00000  Uiso   1.00
C168   C     0.66936   0.61657   0.65776   0.00000  Uiso   1.00
C169   C     0.56490   0.46156   0.73485   0.00000  Uiso   1.00
C170   C     0.74239   0.39025   1.02468   0.00000  Uiso   1.00
C171   C     0.58394   0.64413   0.78525   0.00000  Uiso   1.00
C172   C     0.61109   0.47489   0.89987   0.00000  Uiso   1.00
O173   O     0.93328   0.47071   0.69991   0.00000  Uiso   1.00
C174   C     0.74376   0.41968   0.67248   0.00000  Uiso   1.00
O175   O     0.79884   0.37805   0.78530   0.00000  Uiso   1.00
O176   O     0.62128   0.73480   0.06039   0.00000  Uiso   1.00
C177   C     0.73834   0.83877   0.17907   0.00000  Uiso   1.00
O178   O     0.71107   0.91490   0.06986   0.00000  Uiso   1.00
C179   C     0.55379   0.81780   0.15275   0.00000  Uiso   1.00
O180   O     0.94137   0.87661   0.90384   0.00000  Uiso   1.00
C181   C     0.88924   0.81498   0.02583   0.00000  Uiso   1.00
O182   O     0.83623   0.93364  -0.02119   0.00000  Uiso   1.00
C183   C     0.75483   0.75068   0.90672   0.00000  Uiso   1.00
C184   C     0.87211   0.62794   0.45550   0.00000  Uiso   1.00
C185   C     1.03941   0.72916   0.36935   0.00000  Uiso   1.00
C186   C     0.89728   0.79613   0.39242   0.00000  Uiso   1.00
O187   O     1.02139   0.81999   0.50030   0.00000  Uiso   1.00
C188   C     0.50450   0.80242   0.41684   0.00000  Uiso   1.00
C189   C     0.62067   0.71938   0.46012   0.00000  Uiso   1.00
C190   C     0.71245   0.92955   0.46230   0.00000  Uiso   1.00
O191   O     0.56031   0.82149   0.54792   0.00000  Uiso   1.00
O192   O     0.75580   0.62585   0.77621   0.00000  Uiso   1.00
O193   O     0.87008   0.56136   0.77269   0.00000  Uiso   1.00
C194   C     0.91942   0.71639   0.70268   0.00000  Uiso   1.00
O195   O     0.92459   0.72488   0.83715   0.00000  Uiso   1.00
H196   H     0.30256   0.15780   0.10277   0.00000  Uiso   1.00
H197   H     0.30756   0.06258   0.14078   0.00000  Uiso   1.00
H198   H     0.24060   0.11597   0.17574   0.00000  Uiso   1.00
H199   H     0.10261   0.95661   0.41725   0.00000  Uiso   1.00
H200   H     0.18792   0.93988   0.45460   0.00000  Uiso   1.00
H201   H     0.22846   1.04223   0.41097   0.00000  Uiso   1.00
H202   H     0.05638   0.29215   0.60529   0.00000  Uiso   1.00
H203   H     0.13371   0.23332   0.59790   0.00000  Uiso   1.00
H204   H     0.14463   0.31706   0.67165   0.00000  Uiso   1.00
H205   H     0.95932   0.04504   0.56688   0.00000  Uiso   1.00
H206   H     0.89221   0.10425   0.56561   0.00000  Uiso   1.00
H207   H     0.85502   0.02191   0.61707   0.00000  Uiso   1.00
H208   H    -0.06096   0.10523   0.45181   0.00000  Uiso   1.00
H209   H    -0.04724   0.02764   0.38728   0.00000  Uiso   1.00
H210   H    -0.03391   0.13569   0.36962   0.00000  Uiso   1.00
H211   H     0.16035   0.32293   0.40812   0.00000  Uiso   1.00
H212   H     0.22830   0.32147   0.47875   0.00000  Uiso   1.00
H213   H     0.11284   0.31425   0.49022   0.00000  Uiso   1.00
H214   H     0.18950   0.21166   0.32696   0.00000  Uiso   1.00
H215   H     0.16276   0.09539   0.32875   0.00000  Uiso   1.00
H216   H     0.26546   0.19225   0.37927   0.00000  Uiso   1.00
H217   H     0.27400   0.37788   0.22401   0.00000  Uiso   1.00
H218   H     0.31227   0.30746   0.19266   0.00000  Uiso   1.00
H219   H     0.18682   0.26262   0.20489   0.00000  Uiso   1.00
H220   H     0.11674   0.38269   0.13418   0.00000  Uiso   1.00
H221   H     0.05579   0.26486   0.12624   0.00000  Uiso   1.00
H222   H     0.08000   0.31311   0.04793   0.00000  Uiso   1.00
H223   H    -0.02686   0.48486   0.32240   0.00000  Uiso   1.00
H224   H    -0.13977   0.43149   0.27360   0.00000  Uiso   1.00
H225   H    -0.02867   0.47763   0.23708   0.00000  Uiso   1.00
H226   H     0.79860   0.18056   0.32325   0.00000  Uiso   1.00
H227   H     0.75411   0.25320   0.29951   0.00000  Uiso   1.00
H228   H     0.83934   0.30041   0.36853   0.00000  Uiso   1.00
H229   H     0.13450   0.54736   0.70874   0.00000  Uiso   1.00
H230   H     0.17822   0.57598   0.62493   0.00000  Uiso   1.00
H231   H     0.11973   0.45314   0.65323   0.00000  Uiso   1.00
H232   H     0.03007   0.64720   0.64901   0.00000  Uiso   1.00
H233   H    -0.06811   0.58412   0.59247   0.00000  Uiso   1.00
H234   H     0.06139   0.62228   0.56916   0.00000  Uiso   1.00
H235   H     0.04093   0.34579   0.32864   0.00000  Uiso   1.00
H236   H     0.07838   0.32983   0.24486   0.00000  Uiso   1.00
H237   H    -0.02072   0.22609   0.27793   0.00000  Uiso   1.00
H238   H     0.23881   0.57028   0.32184   0.00000  Uiso   1.00
H239   H     0.21005   0.47011   0.26424   0.00000  Uiso   1.00
H240   H     0.12781   0.51249   0.27521   0.00000  Uiso   1.00
H241   H     0.26991   0.72775   0.28021   0.00000  Uiso   1.00
H242   H     0.33050   0.77244   0.20849   0.00000  Uiso   1.00
H243   H     0.39314   0.75520   0.26591   0.00000  Uiso   1.00
H244   H     0.18824   0.53826   0.09103   0.00000  Uiso   1.00
H245   H     0.18921   0.65092   0.11728   0.00000  Uiso   1.00
H246   H     0.10140   0.54950   0.14457   0.00000  Uiso   1.00
H247   H     0.16462   0.44521   0.85062   0.00000  Uiso   1.00
H248   H     0.08027   0.36285   0.78668   0.00000  Uiso   1.00
H249   H     0.20556   0.43397   0.76940   0.00000  Uiso   1.00
H250   H     0.30082   0.32188   0.89491   0.00000  Uiso   1.00
H251   H     0.25646   0.38657   0.95105   0.00000  Uiso   1.00
H252   H     0.31884   0.43433   0.87859   0.00000  Uiso   1.00
H253   H     0.10750   0.56105   0.99177   0.00000  Uiso   1.00
H254   H     0.06898   0.44202   0.96049   0.00000  Uiso   1.00
H255   H    -0.00480   0.46518   1.02171   0.00000  Uiso   1.00
H256   H     0.04003   0.59130   0.81765   0.00000  Uiso   1.00
H257   H     0.05024   0.48929   0.80129   0.00000  Uiso   1.00
H258   H     0.13296   0.59004   0.86430   0.00000  Uiso   1.00
H259   H     0.22635   1.03362   0.25463   0.00000  Uiso   1.00
H260   H     0.23023   0.93453   0.20660   0.00000  Uiso   1.00
H261   H     0.16536   0.92043   0.28436   0.00000  Uiso   1.00
H262   H     1.02194   0.97866   0.29689   0.00000  Uiso   1.00
H263   H     0.94392   0.97047   0.23349   0.00000  Uiso   1.00
H264   H     1.06445   1.06225   0.23944   0.00000  Uiso   1.00
H265   H     0.94962   0.79658   0.24974   0.00000  Uiso   1.00
H266   H     1.01124   0.75141   0.19270   0.00000  Uiso   1.00
H267   H     0.91020   0.77151   0.16455   0.00000  Uiso   1.00
H268   H     0.11054   0.70615   0.01299   0.00000  Uiso   1.00
H269   H     0.04014   0.75476   0.05916   0.00000  Uiso   1.00
H270   H     0.15614   0.79959   0.08253   0.00000  Uiso   1.00
H271   H     0.30568   0.86091   0.94863   0.00000  Uiso   1.00
H272   H     0.26191   0.90058   0.88897   0.00000  Uiso   1.00
H273   H     0.20404   0.77557   0.89200   0.00000  Uiso   1.00
H274   H     0.90861   0.87309   0.64462   0.00000  Uiso   1.00
H275   H     0.85007   0.76415   0.59362   0.00000  Uiso   1.00
H276   H     0.86451   0.86486   0.56093   0.00000  Uiso   1.00
H277   H     0.18231   0.74825   0.63507   0.00000  Uiso   1.00
H278   H     0.15375   0.75997   0.71994   0.00000  Uiso   1.00
H279   H     0.26636   0.83162   0.70407   0.00000  Uiso   1.00
H280   H     0.31887   0.85616   0.05543   0.00000  Uiso   1.00
H281   H     0.35932   0.95446   0.10846   0.00000  Uiso   1.00
H282   H     0.38580   0.87548   0.13270   0.00000  Uiso   1.00
H283   H     0.50522   0.25606   0.06937   0.00000  Uiso   1.00
H284   H     0.57731   0.20857   0.08710   0.00000  Uiso   1.00
H285   H     0.44561   0.13809   0.09866   0.00000  Uiso   1.00
H286   H     0.49946   0.25749   0.44172   0.00000  Uiso   1.00
H287   H     0.47377   0.25068   0.52436   0.00000  Uiso   1.00
H288   H     0.37823   0.20075   0.46468   0.00000  Uiso   1.00
H289   H     0.47555   1.07566   0.34791   0.00000  Uiso   1.00
H290   H     0.35385   1.03272   0.35771   0.00000  Uiso   1.00
H291   H     0.39289   0.95918   0.37545   0.00000  Uiso   1.00
H292   H     0.37189   0.12334   0.69817   0.00000  Uiso   1.00
H293   H     0.45483   0.23872   0.68692   0.00000  Uiso   1.00
H294   H     0.44077   0.15948   0.62440   0.00000  Uiso   1.00
H295   H     0.34926   0.35421   0.67636   0.00000  Uiso   1.00
H296   H     0.29929   0.31459   0.59352   0.00000  Uiso   1.00
H297   H     0.42382   0.34140   0.61313   0.00000  Uiso   1.00
H298   H     0.44230   0.18880   0.83328   0.00000  Uiso   1.00
H299   H     0.43418   0.28014   0.88370   0.00000  Uiso   1.00
H300   H     0.34955   0.21141   0.81611   0.00000  Uiso   1.00
H301   H     0.69263   0.64114   0.07219   0.00000  Uiso   1.00
H302   H     0.76032   0.60920   0.01449   0.00000  Uiso   1.00
H303   H     0.68574   0.53890   0.07567   0.00000  Uiso   1.00
H304   H     0.41522   0.41096   0.99471   0.00000  Uiso   1.00
H305   H     0.48032   0.41853   1.06175   0.00000  Uiso   1.00
H306   H     0.48867   0.35078   0.99167   0.00000  Uiso   1.00
H307   H     0.42738   0.60124   0.28628   0.00000  Uiso   1.00
H308   H     0.54493   0.70092   0.27134   0.00000  Uiso   1.00
H309   H     0.53414   0.63994   0.33814   0.00000  Uiso   1.00
H310   H     0.68865   0.66418   0.18884   0.00000  Uiso   1.00
H311   H     0.67088   0.55041   0.18753   0.00000  Uiso   1.00
H312   H     0.70381   0.62393   0.26222   0.00000  Uiso   1.00
H313   H     0.32498   0.71017   1.06070   0.00000  Uiso   1.00
H314   H     0.30031   0.62477   0.98966   0.00000  Uiso   1.00
H315   H     0.26008   0.71173   0.98475   0.00000  Uiso   1.00
H316   H     0.47465   0.83201   0.86295   0.00000  Uiso   1.00
H317   H     0.34362   0.75067   0.86496   0.00000  Uiso   1.00
H318   H     0.41950   0.70672   0.84971   0.00000  Uiso   1.00
H319   H     0.18881   0.82221   0.49660   0.00000  Uiso   1.00
H320   H     0.25465   0.77583   0.53019   0.00000  Uiso   1.00
H321   H     0.30098   0.83761   0.45936   0.00000  Uiso   1.00
H322   H     0.38711   0.59765   0.46066   0.00000  Uiso   1.00
H323   H     0.32400   0.62626   0.52610   0.00000  Uiso   1.00
H324   H     0.28146   0.50342   0.48585   0.00000  Uiso   1.00
H325   H     0.49468   0.50234   0.48523   0.00000  Uiso   1.00
H326   H     0.39440   0.41883   0.52435   0.00000  Uiso   1.00
H327   H     0.50809   0.48442   0.56900   0.00000  Uiso   1.00
H328   H     0.31352   0.56768   0.64895   0.00000  Uiso   1.00
H329   H     0.37930   0.52543   0.67727   0.00000  Uiso   1.00
H330   H     0.27228   0.44343   0.61908   0.00000  Uiso   1.00
H331   H     0.44013   0.89489   0.56172   0.00000  Uiso   1.00
H332   H     0.40468   0.92024   0.63956   0.00000  Uiso   1.00
H333   H     0.49023   1.01655   0.58619   0.00000  Uiso   1.00
H334   H     0.46942   0.84992   0.68608   0.00000  Uiso   1.00
H335   H     0.43077   0.73415   0.70160   0.00000  Uiso   1.00
H336   H     0.38020   0.75129   0.63202   0.00000  Uiso   1.00
H337   H     0.66370   0.90104   0.68923   0.00000  Uiso   1.00
H338   H     0.71754   0.84980   0.63052   0.00000  Uiso   1.00
H339   H     0.64030   0.79468   0.70394   0.00000  Uiso   1.00
H340   H     0.97081   0.11676   0.08952   0.00000  Uiso   1.00
H341   H     0.92582   0.01391   0.13182   0.00000  Uiso   1.00
H342   H     0.88003   0.09288   0.14636   0.00000  Uiso   1.00
H343   H     0.79333   0.12658   0.21075   0.00000  Uiso   1.00
H344   H     0.72509   0.01796   0.16418   0.00000  Uiso   1.00
H345   H     0.68352   0.03799   0.24781   0.00000  Uiso   1.00
H346   H     0.52961   0.15490   0.19285   0.00000  Uiso   1.00
H347   H     0.60012   0.15162   0.25867   0.00000  Uiso   1.00
H348   H     0.49556   0.04301   0.21811   0.00000  Uiso   1.00
H349   H     0.60405   0.16708   0.53130   0.00000  Uiso   1.00
H350   H     0.61988   0.18173   0.45185   0.00000  Uiso   1.00
H351   H     0.58357   0.06779   0.46681   0.00000  Uiso   1.00
H352   H     0.63413   0.03968   0.55481   0.00000  Uiso   1.00
H353   H     0.59480  -0.02500   0.62580   0.00000  Uiso   1.00
H354   H     0.71724   0.01551   0.59371   0.00000  Uiso   1.00
H355   H     0.55006   0.10572   0.70025   0.00000  Uiso   1.00
H356   H     0.59398   0.19208   0.65092   0.00000  Uiso   1.00
H357   H     0.64416   0.21887   0.73323   0.00000  Uiso   1.00
H358   H     0.66795   0.93375   0.83226   0.00000  Uiso   1.00
H359   H     0.71666   0.94974   0.91430   0.00000  Uiso   1.00
H360   H     0.71698   0.86423   0.85351   0.00000  Uiso   1.00
H361   H     0.93984   0.96067   0.75744   0.00000  Uiso   1.00
H362   H     0.84891   0.96560   0.70891   0.00000  Uiso   1.00
H363   H     0.81539   0.87955   0.75852   0.00000  Uiso   1.00
H364   H     0.58209   0.00014   0.88320   0.00000  Uiso   1.00
H365   H     0.64494   0.04454   0.81645   0.00000  Uiso   1.00
H366   H     0.54263   0.05459   0.83358   0.00000  Uiso   1.00
H367   H     0.49491   0.27761   0.25848   0.00000  Uiso   1.00
H368   H     0.37416   0.25032   0.25600   0.00000  Uiso   1.00
H369   H     0.42608   0.24323   0.32890   0.00000  Uiso   1.00
H370   H     0.30906   0.38616   0.33954   0.00000  Uiso   1.00
H371   H     0.40304   0.48134   0.39049   0.00000  Uiso   1.00
H372   H     0.35298   0.36141   0.40582   0.00000  Uiso   1.00
H373   H     0.58565   0.43989   0.41989   0.00000  Uiso   1.00
H374   H     0.62140   0.53991   0.38066   0.00000  Uiso   1.00
H375   H     0.64579   0.45125   0.34352   0.00000  Uiso   1.00
H376   H     0.90499   0.57404   0.98957   0.00000  Uiso   1.00
H377   H     0.85237   0.54183   0.91403   0.00000  Uiso   1.00
H378   H     0.98040   0.64814   0.93091   0.00000  Uiso   1.00
H379   H     0.86501   0.58620   1.10424   0.00000  Uiso   1.00
H380   H     0.96390   0.56910   1.12894   0.00000  Uiso   1.00
H381   H     0.86890   0.56139   1.18674   0.00000  Uiso   1.00
H382   H     0.72703   0.44401   0.22116   0.00000  Uiso   1.00
H383   H     0.66028   0.32612   0.18874   0.00000  Uiso   1.00
H384   H     0.63160   0.39949   0.15605   0.00000  Uiso   1.00
H385   H     0.75449   0.21911   0.56404   0.00000  Uiso   1.00
H386   H     0.84242   0.20353   0.60470   0.00000  Uiso   1.00
H387   H     0.83006   0.28607   0.64405   0.00000  Uiso   1.00
H388   H     0.77308   0.34432   0.44944   0.00000  Uiso   1.00
H389   H     0.86975   0.44793   0.42984   0.00000  Uiso   1.00
H390   H     0.82488   0.45212   0.51299   0.00000  Uiso   1.00
H391   H     0.94023   0.27492   0.41854   0.00000  Uiso   1.00
H392   H     0.82395   0.21869   0.45886   0.00000  Uiso   1.00
H393   H     0.93774   0.23539   0.49028   0.00000  Uiso   1.00
H394   H     1.10759   0.46193   0.47975   0.00000  Uiso   1.00
H395   H     1.06687   0.54901   0.47478   0.00000  Uiso   1.00
H396   H     1.04884   0.46576   0.41036   0.00000  Uiso   1.00
H397   H     0.69381   0.57069   0.63690   0.00000  Uiso   1.00
H398   H     0.72237   0.69041   0.65773   0.00000  Uiso   1.00
H399   H     0.60053   0.60393   0.63515   0.00000  Uiso   1.00
H400   H     0.49042   0.43971   0.73745   0.00000  Uiso   1.00
H401   H     0.59444   0.43031   0.76624   0.00000  Uiso   1.00
H402   H     0.57808   0.44206   0.68536   0.00000  Uiso   1.00
H403   H     0.68114   0.31960   1.01788   0.00000  Uiso   1.00
H404   H     0.80628   0.39463   0.99489   0.00000  Uiso   1.00
H405   H     0.72372   0.43977   1.00765   0.00000  Uiso   1.00
H406   H     0.51670   0.62427   0.75476   0.00000  Uiso   1.00
H407   H     0.63583   0.71774   0.78388   0.00000  Uiso   1.00
H408   H     0.56650   0.61334   0.82990   0.00000  Uiso   1.00
H409   H     0.64939   0.43607   0.90447   0.00000  Uiso   1.00
H410   H     0.67137   0.54027   0.88078   0.00000  Uiso   1.00
H411   H     0.54580   0.43084   0.87012   0.00000  Uiso   1.00
H412   H     0.75389   0.37279   0.62944   0.00000  Uiso   1.00
H413   H     0.74726   0.48042   0.65714   0.00000  Uiso   1.00
H414   H     0.66526   0.37310   0.68461   0.00000  Uiso   1.00
H415   H     0.79459   0.82613   0.16454   0.00000  Uiso   1.00
H416   H     0.69065   0.79230   0.21486   0.00000  Uiso   1.00
H417   H     0.77422   0.91364   0.20473   0.00000  Uiso   1.00
H418   H     0.51387   0.75029   0.16895   0.00000  Uiso   1.00
H419   H     0.49976   0.81944   0.12062   0.00000  Uiso   1.00
H420   H     0.57578   0.87176   0.19488   0.00000  Uiso   1.00
H421   H     0.95254   0.87658   0.04554   0.00000  Uiso   1.00
H422   H     0.91211   0.76325   0.01370   0.00000  Uiso   1.00
H423   H     0.83053   0.78314   0.06082   0.00000  Uiso   1.00
H424   H     0.68344   0.73477   0.92417   0.00000  Uiso   1.00
H425   H     0.76197   0.69079   0.91470   0.00000  Uiso   1.00
H426   H     0.76217   0.76500   0.85630   0.00000  Uiso   1.00
H427   H     0.81162   0.62597   0.48268   0.00000  Uiso   1.00
H428   H     0.90589   0.60129   0.48674   0.00000  Uiso   1.00
H429   H     0.85123   0.57877   0.41156   0.00000  Uiso   1.00
H430   H     0.99169   0.70095   0.32433   0.00000  Uiso   1.00
H431   H     1.05259   0.67532   0.38152   0.00000  Uiso   1.00
H432   H     1.10615   0.78766   0.35867   0.00000  Uiso   1.00
H433   H     0.83892   0.73365   0.36019   0.00000  Uiso   1.00
H434   H     0.94680   0.84726   0.36034   0.00000  Uiso   1.00
H435   H     0.87028   0.83139   0.42661   0.00000  Uiso   1.00
H436   H     0.45930   0.82391   0.44485   0.00000  Uiso   1.00
H437   H     0.46962   0.73162   0.38736   0.00000  Uiso   1.00
H438   H     0.54515   0.86529   0.38685   0.00000  Uiso   1.00
H439   H     0.66564   0.72573   0.50187   0.00000  Uiso   1.00
H440   H     0.65809   0.72260   0.41372   0.00000  Uiso   1.00
H441   H     0.54788   0.64906   0.45631   0.00000  Uiso   1.00
H442   H     0.77253   0.92498   0.48777   0.00000  Uiso   1.00
H443   H     0.72131   1.00006   0.48655   0.00000  Uiso   1.00
H444   H     0.72909   0.93611   0.41147   0.00000  Uiso   1.00
H445   H     0.90786   0.77452   0.71169   0.00000  Uiso   1.00
H446   H     0.88048   0.66564   0.65655   0.00000  Uiso   1.00
H447   H     0.99518   0.74295   0.69944   0.00000  Uiso   1.00
loop_
_geom_bond_atom_site_label_1
_geom_bond_atom_site_label_2
_geom_bond_distance
_geom_bond_site_symmetry_2
_ccdc_geom_bond_type
Si1    C52     1.838   .     S
Si1    O53     1.561   .     S
Si1    O82     1.580   1_545 S
Si1    O86     1.583   1_545 S
Si2    O53     1.615   .     S
Si2    O65     1.632   .     S
Si2    O61     1.633   1_554 S
Si2    O107    1.671   1_554 S
Si3    O58     1.564   .     S
Si3    O100    1.623   .     S
Si3    C54     1.851   1_545 S
Si3    O88     1.559   1_545 S
Si4    C55     1.860   .     S
Si4    O62     1.614   .     S
Si4    C56     1.880   1_455 S
Si4    O146    1.543   1_455 S
Si5    C57     1.903   .     S
Si5    O58     1.579   .     S
Si5    C59     1.869   .     S
Si5    C60     1.900   .     S
Si6    O63     1.624   .     S
Si6    O104    1.577   .     S
Si6    O91     1.628   1_545 S
Si6    O94     1.563   1_545 S
Si7    O61     1.619   .     S
Si7    O75     1.614   .     S
Si7    O135    1.630   1_455 S
Si7    O140    1.577   1_455 S
Si8    O62     1.584   .     S
Si8    O63     1.656   .     S
Si8    O76     1.571   .     S
Si8    O103    1.610   .     S
Si9    C64     1.863   .     S
Si9    O65     1.559   .     S
Si9    C66     1.828   .     S
Si9    O108    1.643   .     S
Si10   C67     1.855   .     S
Si10   C71     1.820   .     S
Si10   C68     1.905   1_455 S
Si10   O151    1.626   1_455 S
Si11   C69     1.902   .     S
Si11   C70     1.867   .     S
Si11   O164    1.559   1_455 S
Si11   O173    1.609   1_455 S
Si12   C72     1.841   .     S
Si12   C73     1.883   .     S
Si12   C74     1.848   .     S
Si12   O109    1.538   .     S
Si13   O75     1.577   .     S
Si13   O76     1.594   .     S
Si13   C77     1.876   .     S
Si13   C78     1.846   .     S
Si14   C79     1.853   .     S
Si14   C80     1.873   .     S
Si14   C156    1.908   1_455 S
Si14   O167    1.537   1_455 S
Si15   C81     1.917   .     S
Si15   O82     1.607   .     S
Si15   C83     1.880   1_455 S
Si15   C84     1.854   1_455 S
Si16   C85     1.866   .     S
Si16   O86     1.600   .     S
Si16   C87     1.936   1_554 S
Si16   O90     1.586   1_554 S
Si17   O88     1.617   .     S
Si17   O92     1.568   .     S
Si17   C89     1.902   1_455 S
Si17   O187    1.603   1_455 S
Si18   O90     1.612   .     S
Si18   O91     1.616   .     S
Si18   O180    1.585   1_455 S
Si18   O195    1.596   1_455 S
Si19   O92     1.634   .     S
Si19   C93     1.852   .     S
Si19   O94     1.648   .     S
Si19   O123    1.606   .     S
Si20   O96     1.623   .     S
Si20   O132    1.605   .     S
Si20   C95     1.855   1_545 S
Si20   O118    1.581   1_545 S
Si21   O96     1.657   .     S
Si21   C97     1.886   .     S
Si21   O105    1.661   1_554 S
Si21   O145    1.606   1_554 S
Si22   C98     1.819   .     S
Si22   C137    1.945   .     S
Si22   C99     1.854   1_545 S
Si22   O122    1.583   1_545 S
Si23   O100    1.605   .     S
Si23   C101    1.859   .     S
Si23   C102    1.911   .     S
Si23   O103    1.562   .     S
Si24   O104    1.600   .     S
Si24   O105    1.682   .     S
Si24   C106    1.859   .     S
Si24   O107    1.636   .     S
Si25   O108    1.635   .     S
Si25   O109    1.638   .     S
Si25   O112    1.652   .     S
Si25   O115    1.610   .     S
Si26   C110    1.915   .     S
Si26   O116    1.550   .     S
Si26   C111    1.843   1_554 S
Si26   C172    1.859   1_554 S
Si27   O112    1.624   .     S
Si27   C113    1.817   .     S
Si27   C114    1.868   .     S
Si27   O155    1.603   .     S
Si28   O115    1.652   .     S
Si28   O116    1.614   .     S
Si28   O117    1.651   .     S
Si28   O176    1.612   .     S
Si29   O117    1.583   .     S
Si29   O118    1.585   .     S
Si29   C119    1.852   1_554 S
Si29   C120    1.811   1_554 S
Si30   C121    1.859   .     S
Si30   O122    1.626   .     S
Si30   O123    1.609   .     S
Si30   C127    1.809   .     S
Si31   C124    1.854   .     S
Si31   C125    1.819   .     S
Si31   C126    1.842   .     S
Si31   O129    1.597   .     S
Si32   C128    1.832   .     S
Si32   O129    1.587   .     S
Si32   C130    1.854   .     S
Si32   O191    1.612   .     S
Si33   C131    1.890   .     S
Si33   O136    1.615   .     S
Si33   O178    1.569   1_545 S
Si33   O182    1.611   1_545 S
Si34   O132    1.592   .     S
Si34   C133    1.869   .     S
Si34   C134    1.880   .     S
Si34   O149    1.615   .     S
Si35   O136    1.591   .     S
Si35   O150    1.536   .     S
Si35   O135    1.632   1_554 S
Si35   O144    1.633   1_554 S
Si36   C138    1.789   .     S
Si36   C139    1.835   .     S
Si36   O147    1.575   .     S
Si36   C160    1.810   .     S
Si37   O140    1.566   .     S
Si37   O148    1.594   .     S
Si37   C141    1.898   1_545 S
Si37   C142    1.845   1_545 S
Si38   C143    1.827   .     S
Si38   O144    1.640   .     S
Si38   O145    1.653   .     S
Si38   O165    1.628   .     S
Si39   O146    1.573   .     S
Si39   O147    1.567   .     S
Si39   O148    1.554   .     S
Si39   O166    1.596   .     S
Si40   O149    1.600   .     S
Si40   O150    1.639   .     S
Si40   O151    1.550   .     S
Si40   O158    1.506   .     S
Si41   C152    1.857   .     S
Si41   C153    1.878   .     S
Si41   C154    1.878   .     S
Si41   O155    1.593   .     S
Si42   O158    1.591   .     S
Si42   C159    1.858   .     S
Si42   C157    1.894   1_554 S
Si42   C170    1.902   1_554 S
Si43   C161    1.858   .     S
Si43   C162    1.889   .     S
Si43   C163    1.841   .     S
Si43   O164    1.595   .     S
Si44   O165    1.586   .     S
Si44   O166    1.575   .     S
Si44   O167    1.574   .     S
Si44   O175    1.576   .     S
Si45   C168    1.794   .     S
Si45   C169    1.897   .     S
Si45   C171    1.903   .     S
Si45   O192    1.592   .     S
Si46   O173    1.608   .     S
Si46   C174    1.806   .     S
Si46   O175    1.630   .     S
Si46   O193    1.646   .     S
Si47   O176    1.573   .     S
Si47   C177    1.878   .     S
Si47   O178    1.569   .     S
Si47   C179    1.856   .     S
Si48   C181    1.861   .     S
Si48   O182    1.592   .     S
Si48   O180    1.626   1_554 S
Si48   C183    1.796   1_554 S
Si49   C184    1.892   .     S
Si49   C185    1.946   .     S
Si49   C186    1.874   .     S
Si49   O187    1.617   .     S
Si50   C188    1.898   .     S
Si50   C189    1.891   .     S
Si50   C190    1.827   .     S
Si50   O191    1.578   .     S
Si51   O192    1.579   .     S
Si51   O193    1.577   .     S
Si51   C194    1.863   .     S
Si51   O195    1.586   .     S
C52    H196    1.087   .     S
C52    H197    1.142   .     S
C52    H198    1.091   .     S
C54    H199    1.101   .     S
C54    H200    1.129   .     S
C54    H201    1.104   .     S
C54    Si3     1.851   1_565 S
C55    H202    1.137   .     S
C55    H203    1.116   .     S
C55    H204    1.101   .     S
C56    H205    1.131   .     S
C56    H206    1.076   .     S
C56    H207    1.096   .     S
C56    Si4     1.880   1_655 S
C57    H208    1.084   .     S
C57    H209    1.130   .     S
C57    H210    1.144   .     S
C59    H211    1.128   .     S
C59    H212    1.082   .     S
C59    H213    1.126   .     S
C60    H214    1.134   .     S
C60    H215    1.143   .     S
C60    H216    1.114   .     S
O61    Si2     1.633   1_556 S
C64    H217    1.047   .     S
C64    H218    1.120   .     S
C64    H219    1.062   .     S
C66    H220    1.094   .     S
C66    H221    1.145   .     S
C66    H222    1.163   .     S
C67    H223    1.110   .     S
C67    H224    1.079   .     S
C67    H225    1.078   .     S
C68    H226    1.168   .     S
C68    H227    1.104   .     S
C68    H228    1.100   .     S
C68    Si10    1.905   1_655 S
C69    H229    1.111   .     S
C69    H230    1.151   .     S
C69    H231    1.153   .     S
C70    H232    1.103   .     S
C70    H233    1.098   .     S
C70    H234    1.104   .     S
C71    H235    1.117   .     S
C71    H236    1.138   .     S
C71    H237    1.126   .     S
C72    H238    1.142   .     S
C72    H239    1.112   .     S
C72    H240    1.115   .     S
C73    H241    1.084   .     S
C73    H242    1.034   .     S
C73    H243    1.134   .     S
C74    H244    1.146   .     S
C74    H245    1.167   .     S
C74    H246    1.114   .     S
C77    H247    1.094   .     S
C77    H248    1.127   .     S
C77    H249    1.107   .     S
C78    H250    1.148   .     S
C78    H251    1.076   .     S
C78    H252    1.146   .     S
C79    H253    1.091   .     S
C79    H254    1.097   .     S
C79    H255    1.138   .     S
C80    H256    1.107   .     S
C80    H257    1.138   .     S
C80    H258    1.088   .     S
C81    H259    1.136   .     S
C81    H260    1.149   .     S
C81    H261    1.108   .     S
O82    Si1     1.580   1_565 S
C83    H262    1.097   .     S
C83    H263    1.087   .     S
C83    H264    1.081   .     S
C83    Si15    1.880   1_655 S
C84    H265    1.113   .     S
C84    H266    1.149   .     S
C84    H267    1.129   .     S
C84    Si15    1.854   1_655 S
C85    H268    1.085   .     S
C85    H269    1.109   .     S
C85    H270    1.094   .     S
O86    Si1     1.583   1_565 S
C87    H271    1.070   .     S
C87    H272    1.107   .     S
C87    H273    1.127   .     S
C87    Si16    1.936   1_556 S
O88    Si3     1.559   1_565 S
C89    H274    1.103   .     S
C89    H275    1.123   .     S
C89    H276    1.099   .     S
C89    Si17    1.902   1_655 S
O90    Si16    1.586   1_556 S
O91    Si6     1.628   1_565 S
C93    H277    1.102   .     S
C93    H278    1.163   .     S
C93    H279    1.062   .     S
O94    Si6     1.563   1_565 S
C95    H280    1.043   .     S
C95    H281    1.069   .     S
C95    H282    1.115   .     S
C95    Si20    1.855   1_565 S
C97    H283    1.148   .     S
C97    H284    1.111   .     S
C97    H285    1.128   .     S
C98    H286    1.084   .     S
C98    H287    1.139   .     S
C98    H288    1.090   .     S
C99    H289    1.084   .     S
C99    H290    1.087   .     S
C99    H291    1.101   .     S
C99    Si22    1.854   1_565 S
C101   H292    1.077   .     S
C101   H293    1.082   .     S
C101   H294    1.105   .     S
C102   H295    1.086   .     S
C102   H296    1.123   .     S
C102   H297    1.139   .     S
O105   Si21    1.661   1_556 S
C106   H298    1.087   .     S
C106   H299    1.096   .     S
C106   H300    1.080   .     S
O107   Si2     1.671   1_556 S
C110   H301    1.113   .     S
C110   H302    1.128   .     S
C110   H303    1.048   .     S
C111   H304    1.098   .     S
C111   H305    1.098   .     S
C111   H306    1.105   .     S
C111   Si26    1.843   1_556 S
C113   H307    1.108   .     S
C113   H308    1.136   .     S
C113   H309    1.087   .     S
C114   H310    1.093   .     S
C114   H311    1.086   .     S
C114   H312    1.114   .     S
O118   Si20    1.581   1_565 S
C119   H313    1.146   .     S
C119   H314    1.085   .     S
C119   H315    1.194   .     S
C119   Si29    1.852   1_556 S
C120   H316    1.100   .     S
C120   H317    1.146   .     S
C120   H318    1.080   .     S
C120   Si29    1.811   1_556 S
C121   H319    1.114   .     S
C121   H320    1.107   .     S
C121   H321    1.114   .     S
O122   Si22    1.583   1_565 S
C124   H322    1.131   .     S
C124   H323    1.088   .     S
C124   H324    1.133   .     S
C125   H325    1.145   .     S
C125   H326    1.077   .     S
C125   H327    1.093   .     S
C126   H328    1.113   .     S
C126   H329    1.107   .     S
C126   H330    1.109   .     S
C127   H331    1.079   .     S
C127   H332    1.116   .     S
C127   H333    1.093   .     S
C128   H334    1.113   .     S
C128   H335    1.106   .     S
C128   H336    1.094   .     S
C130   H337    1.078   .     S
C130   H338    1.118   .     S
C130   H339    1.110   .     S
C131   H340    1.122   .     S
C131   H341    1.081   .     S
C131   H342    1.146   .     S
C133   H343    1.102   .     S
C133   H344    1.099   .     S
C133   H345    1.129   .     S
C134   H346    1.130   .     S
C134   H347    1.126   .     S
C134   H348    1.090   .     S
O135   Si7     1.630   1_655 S
O135   Si35    1.632   1_556 S
C137   H349    1.093   .     S
C137   H350    1.060   .     S
C137   H351    1.110   .     S
C138   H352    1.079   .     S
C138   H353    1.146   .     S
C138   H354    1.096   .     S
C139   H355    1.081   .     S
C139   H356    1.102   .     S
C139   H357    1.086   .     S
O140   Si7     1.577   1_655 S
C141   H358    1.108   .     S
C141   H359    1.136   .     S
C141   H360    1.105   .     S
C141   Si37    1.898   1_565 S
C142   H361    1.121   .     S
C142   H362    1.085   .     S
C142   H363    1.089   .     S
C142   Si37    1.845   1_565 S
C143   H364    1.073   .     S
C143   H365    1.062   .     S
C143   H366    1.141   .     S
O144   Si35    1.633   1_556 S
O145   Si21    1.606   1_556 S
O146   Si4     1.543   1_655 S
O151   Si10    1.626   1_655 S
C152   H367    1.093   .     S
C152   H368    1.072   .     S
C152   H369    1.117   .     S
C153   H370    1.105   .     S
C153   H371    1.110   .     S
C153   H372    1.092   .     S
C154   H373    1.122   .     S
C154   H374    1.123   .     S
C154   H375    1.107   .     S
C156   H376    1.072   .     S
C156   H377    1.117   .     S
C156   H378    1.139   .     S
C156   Si14    1.908   1_655 S
C157   H379    1.057   .     S
C157   H380    1.158   .     S
C157   H381    1.113   .     S
C157   Si42    1.894   1_556 S
C159   H382    1.141   .     S
C159   H383    1.053   .     S
C159   H384    1.081   .     S
C160   H385    1.116   .     S
C160   H386    1.041   .     S
C160   H387    1.095   .     S
C161   H388    1.161   .     S
C161   H389    1.092   .     S
C161   H390    1.153   .     S
C162   H391    1.084   .     S
C162   H392    1.124   .     S
C162   H393    1.085   .     S
C163   H394    1.093   .     S
C163   H395    1.117   .     S
C163   H396    1.090   .     S
O164   Si11    1.559   1_655 S
O167   Si14    1.537   1_655 S
C168   H397    1.069   .     S
C168   H398    1.085   .     S
C168   H399    1.122   .     S
C169   H400    1.060   .     S
C169   H401    1.139   .     S
C169   H402    1.076   .     S
C170   H403    1.077   .     S
C170   H404    1.153   .     S
C170   H405    1.120   .     S
C170   Si42    1.902   1_556 S
C171   H406    1.140   .     S
C171   H407    1.083   .     S
C171   H408    1.077   .     S
C172   H409    1.119   .     S
C172   H410    1.140   .     S
C172   H411    1.072   .     S
C172   Si26    1.859   1_556 S
O173   Si11    1.609   1_655 S
C174   H412    1.168   .     S
C174   H413    1.085   .     S
C174   H414    1.134   .     S
C177   H415    1.057   .     S
C177   H416    1.117   .     S
C177   H417    1.134   .     S
O178   Si33    1.569   1_565 S
C179   H418    1.073   .     S
C179   H419    1.127   .     S
C179   H420    1.084   .     S
O180   Si18    1.585   1_655 S
O180   Si48    1.626   1_556 S
C181   H421    1.050   .     S
C181   H422    1.104   .     S
C181   H423    1.112   .     S
O182   Si33    1.611   1_565 S
C183   H424    1.097   .     S
C183   H425    1.105   .     S
C183   H426    1.089   .     S
C183   Si48    1.796   1_556 S
C184   H427    1.094   .     S
C184   H428    1.127   .     S
C184   H429    1.070   .     S
C185   H430    1.111   .     S
C185   H431    1.093   .     S
C185   H432    1.061   .     S
C186   H433    1.124   .     S
C186   H434    1.107   .     S
C186   H435    1.079   .     S
O187   Si17    1.603   1_655 S
C188   H436    1.084   .     S
C188   H437    1.112   .     S
C188   H438    1.170   .     S
C189   H439    1.104   .     S
C189   H440    1.105   .     S
C189   H441    1.154   .     S
C190   H442    1.159   .     S
C190   H443    1.158   .     S
C190   H444    1.079   .     S
C194   H445    1.077   .     S
C194   H446    1.137   .     S
C194   H447    1.065   .     S
O195   Si18    1.596   1_655 S
