data_333-11-11-14-15-30-7
_audit_creation_date              2025-03-07
_audit_creation_method            'Materials Studio'
_symmetry_space_group_name_H-M    'P1'
_symmetry_Int_Tables_number       1
_symmetry_cell_setting            triclinic
loop_
_symmetry_equiv_pos_as_xyz
  x,y,z
_cell_length_a                    16.6982
_cell_length_b                    17.2505
_cell_length_c                    18.3260
_cell_angle_alpha                 85.7516
_cell_angle_beta                  91.3169
_cell_angle_gamma                 118.3020
loop_
_atom_site_label
_atom_site_type_symbol
_atom_site_fract_x
_atom_site_fract_y
_atom_site_fract_z
_atom_site_U_iso_or_equiv
_atom_site_adp_type
_atom_site_occupancy
Si1    Si   -0.01965   0.16557   0.24795   0.00000  Uiso   1.00
Si2    Si    0.12110   0.20042   0.00437   0.00000  Uiso   1.00
Si3    Si    0.13819  -0.02043   0.41007   0.00000  Uiso   1.00
Si4    Si   -0.02497   0.15773   0.56903   0.00000  Uiso   1.00
Si5    Si    0.12885   0.14590   0.35094   0.00000  Uiso   1.00
Si6    Si    0.11478  -0.01281   0.77585   0.00000  Uiso   1.00
Si7    Si    0.10959   0.09946   0.63977   0.00000  Uiso   1.00
Si8    Si    0.11224   0.29528   0.13207   0.00000  Uiso   1.00
Si9    Si    0.02092   0.47487   0.23130   0.00000  Uiso   1.00
Si10   Si    0.23407   0.49491   0.10563   0.00000  Uiso   1.00
Si11   Si    0.12460   0.28450   0.45387   0.00000  Uiso   1.00
Si12   Si   -0.05108   0.38621   0.53954   0.00000  Uiso   1.00
Si13   Si    0.14320   0.44489   0.34925   0.00000  Uiso   1.00
Si14   Si    0.20837   0.45156   0.75789   0.00000  Uiso   1.00
Si15   Si    0.14151   0.46118   0.60440   0.00000  Uiso   1.00
Si16   Si    0.19949   0.64005   0.16739   0.00000  Uiso   1.00
Si17   Si    0.24158   0.75003   0.01912   0.00000  Uiso   1.00
Si18   Si    0.01330   0.84002   0.52256   0.00000  Uiso   1.00
Si19   Si    0.17318   0.86549   0.30253   0.00000  Uiso   1.00
Si20   Si    0.12404   0.63182   0.62631   0.00000  Uiso   1.00
Si21   Si    0.43493   0.14359   0.01441   0.00000  Uiso   1.00
Si22   Si    0.31838   0.19506   0.28733   0.00000  Uiso   1.00
Si23   Si    0.55667   0.22650  -0.11960   0.00000  Uiso   1.00
Si24   Si    0.46752  -0.03949   0.46679   0.00000  Uiso   1.00
Si25   Si    0.24084   0.09110   0.53499   0.00000  Uiso   1.00
Si26   Si    0.54980  -0.03812   0.86755   0.00000  Uiso   1.00
Si27   Si    0.56822   0.40479  -0.12886   0.00000  Uiso   1.00
Si28   Si    0.28456   0.43030   0.52437   0.00000  Uiso   1.00
Si29   Si    0.44353   0.42895   0.60688   0.00000  Uiso   1.00
Si30   Si    0.58148   0.69854   0.21849   0.00000  Uiso   1.00
Si31   Si    0.31023   0.80032   0.26828   0.00000  Uiso   1.00
Si32   Si    0.45357   0.86914   0.62069   0.00000  Uiso   1.00
Si33   Si    0.48447   0.84517   0.35595   0.00000  Uiso   1.00
Si34   Si    0.40321   0.78266   0.92859   0.00000  Uiso   1.00
Si35   Si    0.58880   0.87418   0.74153   0.00000  Uiso   1.00
Si36   Si    0.80570   0.03266   0.16709   0.00000  Uiso   1.00
Si37   Si    0.69141   0.23838   0.24639   0.00000  Uiso   1.00
Si38   Si    0.81213   0.18311   0.05692   0.00000  Uiso   1.00
Si39   Si    0.81158  -0.01102   0.52399   0.00000  Uiso   1.00
Si40   Si    0.68394   0.14588   0.92305   0.00000  Uiso   1.00
Si41   Si    0.86457   0.16089   0.69808   0.00000  Uiso   1.00
Si42   Si    0.85959   0.34241   0.14375   0.00000  Uiso   1.00
Si43   Si    0.85800   0.46373   0.02275   0.00000  Uiso   1.00
Si44   Si    0.58294   0.41884   0.51278   0.00000  Uiso   1.00
Si45   Si    0.89982   0.55667   0.27297   0.00000  Uiso   1.00
Si46   Si    0.83795   0.26793   0.81316   0.00000  Uiso   1.00
Si47   Si    0.88128   0.64876  -0.01933   0.00000  Uiso   1.00
Si48   Si    0.66019   0.88554   0.27925   0.00000  Uiso   1.00
Si49   Si    0.77928   0.89612   0.06107   0.00000  Uiso   1.00
Si50   Si    0.73767   0.86772   0.66000   0.00000  Uiso   1.00
Si51   Si    0.79408   0.87965   0.39564   0.00000  Uiso   1.00
C52    C     0.92352   0.20268   0.31284   0.00000  Uiso   1.00
C53    C     0.09517   0.09960   0.06103   0.00000  Uiso   1.00
C54    C     0.06861   0.17892   0.91269   0.00000  Uiso   1.00
C55    C     0.24547   0.26615   0.98375   0.00000  Uiso   1.00
O56    O     0.05743   0.13979   0.28391   0.00000  Uiso   1.00
O57    O     0.09984   0.04551   0.38353   0.00000  Uiso   1.00
C58    C     0.22400   0.07656   0.80400   0.00000  Uiso   1.00
C59    C     0.02333   0.96064   0.84490   0.00000  Uiso   1.00
C60    C     0.11583   0.87931   0.76425   0.00000  Uiso   1.00
O61    O     0.01724   0.10370   0.61656   0.00000  Uiso   1.00
O62    O     0.08269   0.02260   0.70531   0.00000  Uiso   1.00
O63    O     0.02546   0.24211   0.18367   0.00000  Uiso   1.00
O64    O     0.09619   0.26076   0.05135   0.00000  Uiso   1.00
C65    C     0.19775   0.27642   0.17870   0.00000  Uiso   1.00
O66    O     0.15125   0.40048   0.13011   0.00000  Uiso   1.00
C67    C     0.21323   0.51551   1.00904   0.00000  Uiso   1.00
C68    C     0.34623   0.48984   1.11294   0.00000  Uiso   1.00
O69    O     0.05151   0.23869   0.52172   0.00000  Uiso   1.00
O70    O     0.11473   0.19849   0.41446   0.00000  Uiso   1.00
C71    C    -0.03387   0.47827   0.47542   0.00000  Uiso   1.00
C72    C     0.87481   0.36938   0.61874   0.00000  Uiso   1.00
C73    C     0.88833   0.28824   0.48673   0.00000  Uiso   1.00
O74    O     0.06539   0.42918   0.28705   0.00000  Uiso   1.00
O75    O     0.10649   0.35477   0.40120   0.00000  Uiso   1.00
C76    C     0.17164   0.54789   0.39298   0.00000  Uiso   1.00
C77    C     0.25120   0.46099   0.30801   0.00000  Uiso   1.00
C78    C     0.22588   0.36052   0.79587   0.00000  Uiso   1.00
C79    C     0.18651   0.20795   0.66798   0.00000  Uiso   1.00
C80    C     0.32293   0.53928   0.74295   0.00000  Uiso   1.00
C81    C     0.15810   0.48278   0.83042   0.00000  Uiso   1.00
O82    O     0.04718   0.39647   0.57078   0.00000  Uiso   1.00
O83    O     0.15150   0.42979   0.68460   0.00000  Uiso   1.00
O84    O     0.09494   0.56457   0.18605   0.00000  Uiso   1.00
O85    O     0.24425   0.57891   0.14975   0.00000  Uiso   1.00
O86    O     0.20565   0.70348   0.09566   0.00000  Uiso   1.00
C87    C     0.24680   0.86149   0.01569   0.00000  Uiso   1.00
C88    C     0.15768   0.69538   0.94763   0.00000  Uiso   1.00
C89    C     0.10998   0.86466   0.59008   0.00000  Uiso   1.00
O90    O     0.05660   0.89000   0.44583   0.00000  Uiso   1.00
C91    C     0.95016   0.89223   0.55634   0.00000  Uiso   1.00
C92    C     0.93548   0.71918   0.50999   0.00000  Uiso   1.00
C93    C     0.12299   0.87451   0.21415   0.00000  Uiso   1.00
C94    C     0.08087   0.76413   0.34285   0.00000  Uiso   1.00
O95    O     0.18378   0.94859   0.34934   0.00000  Uiso   1.00
C96    C     0.00375   0.58847   0.64318   0.00000  Uiso   1.00
O97    O     0.14659   0.55288   0.60800   0.00000  Uiso   1.00
C98    C     0.17048   0.71314   0.54308   0.00000  Uiso   1.00
C99    C     0.49567   1.08390   0.06344   0.00000  Uiso   1.00
C100   C     0.27166   0.11847   0.21116   0.00000  Uiso   1.00
C101   C     0.37917   0.15159   0.34744   0.00000  Uiso   1.00
O102   O     0.23347   0.19684   0.32644   0.00000  Uiso   1.00
O103   O     0.47308   0.16937  -0.06685   0.00000  Uiso   1.00
C104   C     0.53666   0.20683   0.77877   0.00000  Uiso   1.00
C105   C     0.34832  -0.07009   0.45704   0.00000  Uiso   1.00
C106   C     0.52662   0.08340   0.46615   0.00000  Uiso   1.00
O107   O     0.21503   0.02893   0.46676   0.00000  Uiso   1.00
C108   C     0.30638   0.06656   0.60672   0.00000  Uiso   1.00
C109   C     0.31139   0.20867   0.50016   0.00000  Uiso   1.00
O110   O     0.14929   0.07873   0.56878   0.00000  Uiso   1.00
C111   C     0.47177   0.00052   0.82234   0.00000  Uiso   1.00
C112   C     0.39998   0.30740   0.24977   0.00000  Uiso   1.00
C113   C     0.44370   0.35542  -0.14829   0.00000  Uiso   1.00
O114   O     0.58911   0.32821  -0.10966   0.00000  Uiso   1.00
C115   C     0.64495   0.47748  -0.20482   0.00000  Uiso   1.00
C116   C     0.59625   0.46884  -0.04460   0.00000  Uiso   1.00
O117   O     0.22126   0.33796   0.49105   0.00000  Uiso   1.00
C118   C     0.36707   0.51338   0.45397   0.00000  Uiso   1.00
O119   O     0.22294   0.46961   0.55341   0.00000  Uiso   1.00
O120   O     0.34414   0.41533   0.58952   0.00000  Uiso   1.00
C121   C     0.43545   0.34077   0.67583   0.00000  Uiso   1.00
C122   C     0.50488   0.53524   0.64309   0.00000  Uiso   1.00
C123   C     0.55713   0.61298   0.29955   0.00000  Uiso   1.00
C124   C     0.62796   0.65049   0.15090   0.00000  Uiso   1.00
C125   C     0.47482   0.69920   0.18705   0.00000  Uiso   1.00
O126   O     0.24316   0.70353   0.23678   0.00000  Uiso   1.00
C127   C     0.37963   0.87194   0.18835   0.00000  Uiso   1.00
C128   C     0.31036   1.07578   0.01468   0.00000  Uiso   1.00
O129   O     0.26039   0.85078   0.30394   0.00000  Uiso   1.00
C130   C     0.40156   0.74970   0.61202   0.00000  Uiso   1.00
O131   O     0.49179   0.92019   0.53982   0.00000  Uiso   1.00
C132   C     0.36969   0.89751   0.65350   0.00000  Uiso   1.00
O133   O     0.38577   0.79564   0.32262   0.00000  Uiso   1.00
C134   C     0.49104   0.76510   0.42090   0.00000  Uiso   1.00
O135   O     0.49019   0.92718   0.39346   0.00000  Uiso   1.00
C136   C     0.17867   0.68120   0.71375   0.00000  Uiso   1.00
C137   C     0.32978   0.76499   0.84456   0.00000  Uiso   1.00
C138   C     0.44941   0.70192   0.94175   0.00000  Uiso   1.00
O139   O     0.48666   0.88134   0.92355   0.00000  Uiso   1.00
O140   O     0.34024   0.76789   0.99926   0.00000  Uiso   1.00
O141   O     0.53877   0.90122   0.67633   0.00000  Uiso   1.00
C142   C     0.52832   0.74871   0.76610   0.00000  Uiso   1.00
O143   O     0.59919   0.92744   0.81307   0.00000  Uiso   1.00
O144   O     0.89980   0.07598   0.21445   0.00000  Uiso   1.00
C145   C     0.45724   0.24342   0.06448   0.00000  Uiso   1.00
C146   C     0.61069   0.26953   0.19624   0.00000  Uiso   1.00
C147   C     0.63833   0.11793   0.23870   0.00000  Uiso   1.00
C148   C     0.69122   0.25566   0.34743   0.00000  Uiso   1.00
C149   C     0.89966   0.17420   0.99812   0.00000  Uiso   1.00
O150   O     0.78706   0.11071   0.12964   0.00000  Uiso   1.00
C151   C     0.70649  -0.00516   0.50108   0.00000  Uiso   1.00
O152   O     0.89532   0.08725   0.52089   0.00000  Uiso   1.00
O153   O     0.62289   0.04180   0.91355   0.00000  Uiso   1.00
O154   O     0.72798   0.16714   1.00414   0.00000  Uiso   1.00
O155   O     0.62877   0.20038   0.90967   0.00000  Uiso   1.00
O156   O     0.93002   0.18964   0.62873   0.00000  Uiso   1.00
C157   C     0.74194   0.10354   0.67042   0.00000  Uiso   1.00
C158   C     0.88620   0.08123   0.75989   0.00000  Uiso   1.00
O159   O     0.79084   0.28604   0.21256   0.00000  Uiso   1.00
O160   O     0.86102   0.27894   0.08756   0.00000  Uiso   1.00
O161   O     0.96140   0.40478   0.17664   0.00000  Uiso   1.00
C162   C     0.97355   0.48515   0.99582   0.00000  Uiso   1.00
O163   O     0.83403   0.41079   0.10304   0.00000  Uiso   1.00
C164   C     0.76685   0.40308   0.95837   0.00000  Uiso   1.00
C165   C     0.58504   0.32373   0.56221   0.00000  Uiso   1.00
C166   C     0.68848   0.53241   0.51803   0.00000  Uiso   1.00
C167   C     0.57339   0.40521   0.41440   0.00000  Uiso   1.00
O168   O     0.49130   0.41870   0.53688   0.00000  Uiso   1.00
O169   O     0.95188   0.49807   0.27235   0.00000  Uiso   1.00
C170   C     0.77764   0.48884   0.24770   0.00000  Uiso   1.00
C171   C     0.88197   0.58400   0.36542   0.00000  Uiso   1.00
C172   C     0.95078   0.65161   0.20522   0.00000  Uiso   1.00
O173   O     0.76493   0.18355   0.86316   0.00000  Uiso   1.00
O174   O     0.87759   0.23979   0.74575   0.00000  Uiso   1.00
C175   C     0.79058   0.34170   0.77658   0.00000  Uiso   1.00
C176   C     0.93815   0.33500   0.87011   0.00000  Uiso   1.00
C177   C     0.77964   0.66463  -0.03043   0.00000  Uiso   1.00
O178   O     0.85355   0.55387   0.02847   0.00000  Uiso   1.00
C179   C     0.96934   0.74367   0.03018   0.00000  Uiso   1.00
O180   O     0.64727   0.79577   0.24757   0.00000  Uiso   1.00
O181   O     0.71693   0.96666   0.21726   0.00000  Uiso   1.00
O182   O     0.56401   0.87591   0.29817   0.00000  Uiso   1.00
C183   C     0.82431   0.82911   1.10833   0.00000  Uiso   1.00
C184   C     0.91711   0.64245  -0.11263   0.00000  Uiso   1.00
C185   C     0.64999   0.85458   0.05318   0.00000  Uiso   1.00
O186   O     0.81828   0.98278   0.10488   0.00000  Uiso   1.00
C187   C     0.82335   0.92766   0.96664   0.00000  Uiso   1.00
C188   C     0.65829   0.76874   0.61291   0.00000  Uiso   1.00
C189   C     0.80683   0.83184   0.71412   0.00000  Uiso   1.00
O190   O     0.80115   0.94759   0.60512   0.00000  Uiso   1.00
O191   O     0.68391   0.89570   0.71367   0.00000  Uiso   1.00
C192   C     0.89454   0.91484   0.33611   0.00000  Uiso   1.00
O193   O     0.72147   0.90186   0.34934   0.00000  Uiso   1.00
C194   C     0.73396   0.75878   0.42020   0.00000  Uiso   1.00
O195   O     0.82330   0.92960   0.46794   0.00000  Uiso   1.00
H196   H     0.84705   0.15013   0.31827   0.00000  Uiso   1.00
H197   H     0.92540   0.26943   0.29808   0.00000  Uiso   1.00
H198   H     0.96502   0.21140   0.35958   0.00000  Uiso   1.00
H199   H     0.03403   0.08021   0.10381   0.00000  Uiso   1.00
H200   H     0.15567   0.10301   0.08752   0.00000  Uiso   1.00
H201   H     0.06341   0.03403   0.03608   0.00000  Uiso   1.00
H202   H     0.06238   0.23611   0.88588   0.00000  Uiso   1.00
H203   H     0.00716   0.11423   0.92139   0.00000  Uiso   1.00
H204   H     0.11784   0.16984   0.87979   0.00000  Uiso   1.00
H205   H     0.26455   0.23615   0.94177   0.00000  Uiso   1.00
H206   H     0.27863   0.27016   1.04077   0.00000  Uiso   1.00
H207   H     0.25687   0.33126   0.96393   0.00000  Uiso   1.00
H208   H     0.24460   0.04644   0.85319   0.00000  Uiso   1.00
H209   H     0.21874   0.13755   0.82060   0.00000  Uiso   1.00
H210   H     0.27838   0.09336   0.76162   0.00000  Uiso   1.00
H211   H    -0.03896   0.89549   0.83746   0.00000  Uiso   1.00
H212   H     0.00547   1.01352   0.83706   0.00000  Uiso   1.00
H213   H     0.04516   0.95098   0.90271   0.00000  Uiso   1.00
H214   H     0.12058   0.85026   0.81524   0.00000  Uiso   1.00
H215   H     0.16989   0.88973   0.72766   0.00000  Uiso   1.00
H216   H     0.04473   0.83819   0.74623   0.00000  Uiso   1.00
H217   H     0.26195   0.31251   0.14593   0.00000  Uiso   1.00
H218   H     0.17698   0.20612   0.17643   0.00000  Uiso   1.00
H219   H     0.21245   0.29913   0.23492   0.00000  Uiso   1.00
H220   H     0.25918   0.58091   0.99291   0.00000  Uiso   1.00
H221   H     0.14811   0.51429   0.99493   0.00000  Uiso   1.00
H222   H     0.22944   0.47329   0.97825   0.00000  Uiso   1.00
H223   H     0.39504   0.54775   1.07753   0.00000  Uiso   1.00
H224   H     0.33649   0.42835   1.08526   0.00000  Uiso   1.00
H225   H     0.36692   0.48667   1.17155   0.00000  Uiso   1.00
H226   H    -0.03032   0.46525   0.41550   0.00000  Uiso   1.00
H227   H     0.02233   0.54299   0.48564   0.00000  Uiso   1.00
H228   H    -0.10054   0.47956   0.47810   0.00000  Uiso   1.00
H229   H     0.91819   0.38620   0.66866   0.00000  Uiso   1.00
H230   H     0.82325   0.29785   0.62355   0.00000  Uiso   1.00
H231   H     0.84616   0.41544   0.60756   0.00000  Uiso   1.00
H232   H     0.84322   0.22729   0.52589   0.00000  Uiso   1.00
H233   H     0.93528   0.27644   0.45185   0.00000  Uiso   1.00
H234   H     0.84520   0.30250   0.44881   0.00000  Uiso   1.00
H235   H     0.18139   0.54078   0.45259   0.00000  Uiso   1.00
H236   H     0.12329   0.57322   0.38715   0.00000  Uiso   1.00
H237   H     0.23684   0.60019   0.37026   0.00000  Uiso   1.00
H238   H     0.29815   0.53124   0.29214   0.00000  Uiso   1.00
H239   H     0.24599   0.43496   0.25531   0.00000  Uiso   1.00
H240   H     0.29242   0.43799   0.34068   0.00000  Uiso   1.00
H241   H     0.15867   0.30532   0.79702   0.00000  Uiso   1.00
H242   H     0.26210   0.37512   0.84718   0.00000  Uiso   1.00
H243   H     0.27158   0.35359   0.75749   0.00000  Uiso   1.00
H244   H     0.25578   0.22081   0.66268   0.00000  Uiso   1.00
H245   H     0.16492   0.21249   0.72198   0.00000  Uiso   1.00
H246   H     0.18548   0.25425   0.62695   0.00000  Uiso   1.00
H247   H     0.32812   0.60416   0.75027   0.00000  Uiso   1.00
H248   H     0.35066   0.53989   0.68699   0.00000  Uiso   1.00
H249   H     0.37311   0.53372   0.78675   0.00000  Uiso   1.00
H250   H     0.21905   0.53463   0.85034   0.00000  Uiso   1.00
H251   H     0.12569   0.42092   0.86727   0.00000  Uiso   1.00
H252   H     0.11361   0.51006   0.80963   0.00000  Uiso   1.00
H253   H     0.23569   0.88974  -0.03947   0.00000  Uiso   1.00
H254   H     0.31434   0.90243   0.03609   0.00000  Uiso   1.00
H255   H     0.19187   0.86415   0.04790   0.00000  Uiso   1.00
H256   H     0.17611   0.64534   0.92925   0.00000  Uiso   1.00
H257   H     0.16063   0.73446   0.89989   0.00000  Uiso   1.00
H258   H     0.09132   0.66498   0.97550   0.00000  Uiso   1.00
H259   H     0.08964   0.81510   0.63588   0.00000  Uiso   1.00
H260   H     0.12063   0.92496   0.61497   0.00000  Uiso   1.00
H261   H     0.16722   0.86967   0.56005   0.00000  Uiso   1.00
H262   H     0.97573   0.95899   0.52765   0.00000  Uiso   1.00
H263   H     0.95105   0.89478   0.61270   0.00000  Uiso   1.00
H264   H     0.87975   0.85142   0.53953   0.00000  Uiso   1.00
H265   H     0.96705   0.67785   0.50198   0.00000  Uiso   1.00
H266   H     0.88869   0.71811   0.46178   0.00000  Uiso   1.00
H267   H     0.89166   0.69260   0.55901   0.00000  Uiso   1.00
H268   H     0.11712   0.82393   0.17742   0.00000  Uiso   1.00
H269   H     0.16317   0.93785   0.18543   0.00000  Uiso   1.00
H270   H     0.05741   0.87497   0.22690   0.00000  Uiso   1.00
H271   H     0.06772   0.70560   0.31513   0.00000  Uiso   1.00
H272   H     0.01911   0.76884   0.34943   0.00000  Uiso   1.00
H273   H     0.10233   0.75446   0.39793   0.00000  Uiso   1.00
H274   H    -0.01939   0.53612   0.68597   0.00000  Uiso   1.00
H275   H    -0.03499   0.55886   0.59367   0.00000  Uiso   1.00
H276   H    -0.01536   0.63849   0.65670   0.00000  Uiso   1.00
H277   H     0.21786   0.77451   0.56499   0.00000  Uiso   1.00
H278   H     0.11735   0.72682   0.51862   0.00000  Uiso   1.00
H279   H     0.20738   0.69795   0.50274   0.00000  Uiso   1.00
H280   H     0.48518   1.03048   0.03282   0.00000  Uiso   1.00
H281   H     0.46031   1.05700   0.11873   0.00000  Uiso   1.00
H282   H     0.56497   1.12649   0.06874   0.00000  Uiso   1.00
H283   H     0.29754   0.06925   0.21536   0.00000  Uiso   1.00
H284   H     0.28006   0.15865   0.15983   0.00000  Uiso   1.00
H285   H     0.19550   0.08151   0.22224   0.00000  Uiso   1.00
H286   H     0.43254   0.14190   0.32092   0.00000  Uiso   1.00
H287   H     0.33512   0.08909   0.37519   0.00000  Uiso   1.00
H288   H     0.41993   0.19946   0.38552   0.00000  Uiso   1.00
H289   H     0.46034   0.16809   0.76749   0.00000  Uiso   1.00
H290   H     0.56838   0.16901   0.76053   0.00000  Uiso   1.00
H291   H     0.56540   0.27426   0.74471   0.00000  Uiso   1.00
H292   H     0.31168  -0.14340   0.46059   0.00000  Uiso   1.00
H293   H     0.34277  -0.04528   0.40115   0.00000  Uiso   1.00
H294   H     0.32365  -0.04320   0.49546   0.00000  Uiso   1.00
H295   H     0.53686   0.11079   0.41178   0.00000  Uiso   1.00
H296   H     0.59396   0.11123   0.49385   0.00000  Uiso   1.00
H297   H     0.48172   0.11098   0.48518   0.00000  Uiso   1.00
H298   H     0.36192   0.05911   0.57724   0.00000  Uiso   1.00
H299   H     0.26444   0.00551   0.63756   0.00000  Uiso   1.00
H300   H     0.34514   0.12780   0.63984   0.00000  Uiso   1.00
H301   H     0.28480   0.22816   0.45095   0.00000  Uiso   1.00
H302   H     0.38293   0.22109   0.48880   0.00000  Uiso   1.00
H303   H     0.32080   0.25253   0.54574   0.00000  Uiso   1.00
H304   H     0.45893   0.04747   0.85240   0.00000  Uiso   1.00
H305   H     0.40516  -0.05542   0.81428   0.00000  Uiso   1.00
H306   H     0.50057   0.02118   0.76548   0.00000  Uiso   1.00
H307   H     0.38205   0.31560   0.19327   0.00000  Uiso   1.00
H308   H     0.46759   0.30812   0.24594   0.00000  Uiso   1.00
H309   H     0.40206   0.35127   0.29105   0.00000  Uiso   1.00
H310   H     0.41117   0.35916  -0.09820   0.00000  Uiso   1.00
H311   H     0.41614   0.28793  -0.16070   0.00000  Uiso   1.00
H312   H     0.43435   0.39881  -0.19120   0.00000  Uiso   1.00
H313   H     0.62828   0.52946  -0.22100   0.00000  Uiso   1.00
H314   H     0.63250   0.42725  -0.24548   0.00000  Uiso   1.00
H315   H     0.71778   0.50642  -0.18731   0.00000  Uiso   1.00
H316   H     0.66850   0.48969  -0.02604   0.00000  Uiso   1.00
H317   H     0.54015   0.42405  -0.00443   0.00000  Uiso   1.00
H318   H     0.58214   0.52478  -0.05585   0.00000  Uiso   1.00
H319   H     0.33273   0.54198   0.41814   0.00000  Uiso   1.00
H320   H     0.39650   0.48226   0.42542   0.00000  Uiso   1.00
H321   H     0.42061   0.56802   0.48483   0.00000  Uiso   1.00
H322   H     0.41957   0.28230   0.64742   0.00000  Uiso   1.00
H323   H     0.37665   0.32540   0.71216   0.00000  Uiso   1.00
H324   H     0.49766   0.36541   0.70593   0.00000  Uiso   1.00
H325   H     0.58008   0.56471   0.63071   0.00000  Uiso   1.00
H326   H     0.48257   0.52072   0.70079   0.00000  Uiso   1.00
H327   H     0.47816   0.57804   0.61748   0.00000  Uiso   1.00
H328   H     0.57147   0.64430   0.35359   0.00000  Uiso   1.00
H329   H     0.59103   0.57504   0.29744   0.00000  Uiso   1.00
H330   H     0.48720   0.56358   0.30523   0.00000  Uiso   1.00
H331   H     0.63259   0.68276   0.09546   0.00000  Uiso   1.00
H332   H     0.57285   0.58683   0.14896   0.00000  Uiso   1.00
H333   H     0.69385   0.65376   0.17038   0.00000  Uiso   1.00
H334   H     0.46513   0.68100   0.12772   0.00000  Uiso   1.00
H335   H     0.47545   0.76553   0.19430   0.00000  Uiso   1.00
H336   H     0.41937   0.64779   0.21836   0.00000  Uiso   1.00
H337   H     0.36444   0.83508   0.13671   0.00000  Uiso   1.00
H338   H     0.45693   0.90718   0.20228   0.00000  Uiso   1.00
H339   H     0.36002   0.92479   0.18160   0.00000  Uiso   1.00
H340   H     0.28298   1.12556   0.00624   0.00000  Uiso   1.00
H341   H     0.28999   1.03526   0.06910   0.00000  Uiso   1.00
H342   H     0.28568   1.03185  -0.02992   0.00000  Uiso   1.00
H343   H     0.34457   0.73356   0.57252   0.00000  Uiso   1.00
H344   H     0.37554   0.71681   0.66942   0.00000  Uiso   1.00
H345   H     0.45614   0.73498   0.58820   0.00000  Uiso   1.00
H346   H     0.33289   0.85630   0.70321   0.00000  Uiso   1.00
H347   H     0.32165   0.89278   0.60973   0.00000  Uiso   1.00
H348   H     0.40651   0.96521   0.67107   0.00000  Uiso   1.00
H349   H     0.56146   0.80143   0.44522   0.00000  Uiso   1.00
H350   H     0.49165   0.71360   0.39253   0.00000  Uiso   1.00
H351   H     0.43576   0.73610   0.46258   0.00000  Uiso   1.00
H352   H     0.25081   0.69614   0.71372   0.00000  Uiso   1.00
H353   H     0.14548   0.64177   0.76033   0.00000  Uiso   1.00
H354   H     0.18310   0.74826   0.71736   0.00000  Uiso   1.00
H355   H     0.37175   0.79615   0.79233   0.00000  Uiso   1.00
H356   H     0.28738   0.79608   0.84998   0.00000  Uiso   1.00
H357   H     0.29098   0.69237   0.84045   0.00000  Uiso   1.00
H358   H     0.40106   0.63717   0.91843   0.00000  Uiso   1.00
H359   H     0.46297   0.69159   0.99826   0.00000  Uiso   1.00
H360   H     0.51698   0.73028   0.91600   0.00000  Uiso   1.00
H361   H     0.57911   0.73446   0.80169   0.00000  Uiso   1.00
H362   H     0.51379   0.71509   0.71410   0.00000  Uiso   1.00
H363   H     0.46238   0.73128   0.79377   0.00000  Uiso   1.00
H364   H     0.52930   0.29151   0.04882   0.00000  Uiso   1.00
H365   H     0.44989   0.22618   0.12508   0.00000  Uiso   1.00
H366   H     0.41631   0.27340   0.04552   0.00000  Uiso   1.00
H367   H     0.54215   0.21541   0.21571   0.00000  Uiso   1.00
H368   H     0.62376   0.27428   0.13722   0.00000  Uiso   1.00
H369   H     0.61835   0.33529   0.20913   0.00000  Uiso   1.00
H370   H     0.63463   0.09253   0.18275   0.00000  Uiso   1.00
H371   H     0.56748   0.08543   0.26674   0.00000  Uiso   1.00
H372   H     0.67992   0.09060   0.27045   0.00000  Uiso   1.00
H373   H     0.62330   0.24784   0.36433   0.00000  Uiso   1.00
H374   H     0.74744   0.32082   0.34905   0.00000  Uiso   1.00
H375   H     0.70494   0.20866   0.38185   0.00000  Uiso   1.00
H376   H     0.86939   0.14849   0.94505   0.00000  Uiso   1.00
H377   H     0.91720   0.12599   1.02835   0.00000  Uiso   1.00
H378   H     0.96074   0.23945   0.99093   0.00000  Uiso   1.00
H379   H     0.65592  -0.05780   0.53679   0.00000  Uiso   1.00
H380   H     0.67470  -0.02580   0.44763   0.00000  Uiso   1.00
H381   H     0.72136   0.06263   0.51697   0.00000  Uiso   1.00
H382   H     0.72387   0.03756   0.65273   0.00000  Uiso   1.00
H383   H     0.73469   0.14532   0.62304   0.00000  Uiso   1.00
H384   H     0.69907   0.09740   0.71684   0.00000  Uiso   1.00
H385   H     0.87335   0.02340   0.73424   0.00000  Uiso   1.00
H386   H     0.84827   0.06606   0.81185   0.00000  Uiso   1.00
H387   H     0.95708   0.10970   0.77611   0.00000  Uiso   1.00
H388   H     0.99878   0.52806   0.94582   0.00000  Uiso   1.00
H389   H     0.96936   0.42157   0.99343   0.00000  Uiso   1.00
H390   H     1.02107   0.51970   1.03726   0.00000  Uiso   1.00
H391   H     0.70363   0.36293   0.99418   0.00000  Uiso   1.00
H392   H     0.78036   0.35400   0.93691   0.00000  Uiso   1.00
H393   H     0.76583   0.44635   0.91280   0.00000  Uiso   1.00
H394   H     0.52000   0.26270   0.56179   0.00000  Uiso   1.00
H395   H     0.60548   0.34481   0.61611   0.00000  Uiso   1.00
H396   H     0.63637   0.30844   0.53899   0.00000  Uiso   1.00
H397   H     0.71054   0.55594   0.57354   0.00000  Uiso   1.00
H398   H     0.67519   0.58347   0.48642   0.00000  Uiso   1.00
H399   H     0.74453   0.53487   0.48154   0.00000  Uiso   1.00
H400   H     0.51855   0.34108   0.39886   0.00000  Uiso   1.00
H401   H     0.64203   0.42175   0.39766   0.00000  Uiso   1.00
H402   H     0.57369   0.46770   0.39475   0.00000  Uiso   1.00
H403   H     0.74829   0.42970   0.28566   0.00000  Uiso   1.00
H404   H     0.78156   0.46742   0.19235   0.00000  Uiso   1.00
H405   H     0.74289   0.53168   0.25653   0.00000  Uiso   1.00
H406   H     0.94258   0.61422   0.40006   0.00000  Uiso   1.00
H407   H     0.82977   0.51804   0.39220   0.00000  Uiso   1.00
H408   H     0.85566   0.63337   0.35643   0.00000  Uiso   1.00
H409   H     1.01865   0.66482   0.18503   0.00000  Uiso   1.00
H410   H     0.95588   0.70621   0.23562   0.00000  Uiso   1.00
H411   H     0.90200   0.64711   0.16144   0.00000  Uiso   1.00
H412   H     0.74892   0.31520   0.72799   0.00000  Uiso   1.00
H413   H     0.84776   0.41346   0.77096   0.00000  Uiso   1.00
H414   H     0.74440   0.33919   0.82067   0.00000  Uiso   1.00
H415   H     0.90919   0.32521   0.92508   0.00000  Uiso   1.00
H416   H     0.96811   0.40876   0.85135   0.00000  Uiso   1.00
H417   H     0.98663   0.30501   0.86779   0.00000  Uiso   1.00
H418   H     0.74294   0.64402  -0.08570   0.00000  Uiso   1.00
H419   H     0.80281   0.73542  -0.02863   0.00000  Uiso   1.00
H420   H     0.73720   0.62506   0.01601   0.00000  Uiso   1.00
H421   H     0.93233   0.74048   0.08081   0.00000  Uiso   1.00
H422   H     0.99129   0.80421  -0.00488   0.00000  Uiso   1.00
H423   H     1.02488   0.73108   0.04483   0.00000  Uiso   1.00
H424   H     0.89043   0.86318   1.12544   0.00000  Uiso   1.00
H425   H     0.80487   0.76387   1.09348   0.00000  Uiso   1.00
H426   H     0.78684   0.81431   1.15970   0.00000  Uiso   1.00
H427   H     0.99292   0.66374  -0.11220   0.00000  Uiso   1.00
H428   H     0.90842   0.69128  -0.14789   0.00000  Uiso   1.00
H429   H     0.88300   0.57472  -0.13147   0.00000  Uiso   1.00
H430   H     0.61920   0.79156   0.03109   0.00000  Uiso   1.00
H431   H     0.64327   0.90578   0.01517   0.00000  Uiso   1.00
H432   H     0.62438   0.85344   0.10504   0.00000  Uiso   1.00
H433   H     0.90132   0.96081   0.96132   0.00000  Uiso   1.00
H434   H     0.80222   0.97669   0.94282   0.00000  Uiso   1.00
H435   H     0.78764   0.86931   0.93160   0.00000  Uiso   1.00
H436   H     0.61866   0.71136   0.65574   0.00000  Uiso   1.00
H437   H     0.69900   0.74627   0.58091   0.00000  Uiso   1.00
H438   H     0.60601   0.77589   0.57453   0.00000  Uiso   1.00
H439   H     0.87636   0.88846   0.72145   0.00000  Uiso   1.00
H440   H     0.82055   0.78524   0.68761   0.00000  Uiso   1.00
H441   H     0.76535   0.79963   0.76371   0.00000  Uiso   1.00
H442   H     0.91129   0.86015   0.34406   0.00000  Uiso   1.00
H443   H     0.94093   0.97801   0.35495   0.00000  Uiso   1.00
H444   H     0.87759   0.91573   0.27824   0.00000  Uiso   1.00
H445   H     0.75865   0.73844   0.47357   0.00000  Uiso   1.00
H446   H     0.73961   0.72111   0.37487   0.00000  Uiso   1.00
H447   H     0.66073   0.73791   0.42611   0.00000  Uiso   1.00
loop_
_geom_bond_atom_site_label_1
_geom_bond_atom_site_label_2
_geom_bond_distance
_geom_bond_site_symmetry_2
_ccdc_geom_bond_type
Si1    O56     1.658   .     S
Si1    O63     1.602   .     S
Si1    C52     1.861   1_455 S
Si1    O144    1.645   1_455 S
Si2    C53     1.825   .     S
Si2    O64     1.599   .     S
Si2    C54     1.856   1_554 S
Si2    C55     1.866   1_554 S
Si3    O57     1.592   .     S
Si3    O107    1.576   .     S
Si3    O90     1.602   1_545 S
Si3    O95     1.618   1_545 S
Si4    O61     1.612   .     S
Si4    O69     1.585   .     S
Si4    O152    1.612   1_455 S
Si4    O156    1.607   1_455 S
Si5    O56     1.666   .     S
Si5    O57     1.629   .     S
Si5    O70     1.614   .     S
Si5    O102    1.596   .     S
Si6    C58     1.838   .     S
Si6    O62     1.579   .     S
Si6    C59     1.866   1_545 S
Si6    C60     1.897   1_545 S
Si7    O61     1.624   .     S
Si7    O62     1.621   .     S
Si7    C79     1.804   .     S
Si7    O110    1.610   .     S
Si8    O63     1.584   .     S
Si8    O64     1.605   .     S
Si8    C65     1.794   .     S
Si8    O66     1.609   .     S
Si9    O74     1.618   .     S
Si9    O84     1.629   .     S
Si9    O161    1.564   1_455 S
Si9    O169    1.605   1_455 S
Si10   O66     1.597   .     S
Si10   O85     1.648   .     S
Si10   C67     1.838   1_554 S
Si10   C68     1.917   1_554 S
Si11   O69     1.634   .     S
Si11   O70     1.634   .     S
Si11   O75     1.629   .     S
Si11   O117    1.597   .     S
Si12   C71     1.814   .     S
Si12   O82     1.658   .     S
Si12   C72     1.844   1_455 S
Si12   C73     1.842   1_455 S
Si13   O74     1.645   .     S
Si13   O75     1.613   .     S
Si13   C76     1.849   .     S
Si13   C77     1.859   .     S
Si14   C78     1.817   .     S
Si14   C80     1.801   .     S
Si14   C81     1.830   .     S
Si14   O83     1.589   .     S
Si15   O82     1.580   .     S
Si15   O83     1.561   .     S
Si15   O97     1.550   .     S
Si15   O119    1.610   .     S
Si16   O84     1.633   .     S
Si16   O85     1.608   .     S
Si16   O86     1.619   .     S
Si16   O126    1.660   .     S
Si17   O86     1.545   .     S
Si17   C87     1.879   .     S
Si17   C88     1.848   1_554 S
Si17   O140    1.572   1_554 S
Si18   C89     1.911   .     S
Si18   O90     1.587   .     S
Si18   C91     1.822   1_455 S
Si18   C92     1.891   1_455 S
Si19   C93     1.837   .     S
Si19   C94     1.812   .     S
Si19   O95     1.660   .     S
Si19   O129    1.592   .     S
Si20   C96     1.805   .     S
Si20   O97     1.634   .     S
Si20   C98     1.898   .     S
Si20   C136    1.877   .     S
Si21   O103    1.581   .     S
Si21   C145    1.886   .     S
Si21   C99     1.925   1_545 S
Si21   C128    1.841   1_545 S
Si22   C100    1.884   .     S
Si22   C101    1.831   .     S
Si22   O102    1.617   .     S
Si22   C112    1.851   .     S
Si23   O103    1.572   .     S
Si23   O114    1.596   .     S
Si23   C104    1.911   1_554 S
Si23   O155    1.546   1_554 S
Si24   C105    1.809   .     S
Si24   C106    1.866   .     S
Si24   O131    1.595   1_545 S
Si24   O135    1.620   1_545 S
Si25   O107    1.623   .     S
Si25   C108    1.843   .     S
Si25   C109    1.867   .     S
Si25   O110    1.575   .     S
Si26   C111    1.876   .     S
Si26   O153    1.622   .     S
Si26   O139    1.595   1_545 S
Si26   O143    1.619   1_545 S
Si27   C113    1.873   .     S
Si27   O114    1.534   .     S
Si27   C115    1.858   .     S
Si27   C116    1.885   .     S
Si28   O117    1.595   .     S
Si28   C118    1.885   .     S
Si28   O119    1.594   .     S
Si28   O120    1.620   .     S
Si29   O120    1.590   .     S
Si29   C121    1.859   .     S
Si29   C122    1.794   .     S
Si29   O168    1.590   .     S
Si30   C123    1.919   .     S
Si30   C124    1.905   .     S
Si30   C125    1.864   .     S
Si30   O180    1.632   .     S
Si31   O126    1.648   .     S
Si31   C127    1.862   .     S
Si31   O129    1.635   .     S
Si31   O133    1.618   .     S
Si32   C130    1.836   .     S
Si32   O131    1.642   .     S
Si32   C132    1.815   .     S
Si32   O141    1.625   .     S
Si33   O133    1.586   .     S
Si33   C134    1.797   .     S
Si33   O135    1.580   .     S
Si33   O182    1.575   .     S
Si34   C137    1.896   .     S
Si34   C138    1.885   .     S
Si34   O139    1.607   .     S
Si34   O140    1.615   .     S
Si35   O141    1.608   .     S
Si35   C142    1.926   .     S
Si35   O143    1.615   .     S
Si35   O191    1.540   .     S
Si36   O144    1.643   .     S
Si36   O150    1.622   .     S
Si36   O181    1.627   1_545 S
Si36   O186    1.553   1_545 S
Si37   C146    1.873   .     S
Si37   C147    1.848   .     S
Si37   C148    1.898   .     S
Si37   O159    1.579   .     S
Si38   O150    1.672   .     S
Si38   O160    1.597   .     S
Si38   C149    1.905   1_554 S
Si38   O154    1.611   1_554 S
Si39   C151    1.842   .     S
Si39   O152    1.604   .     S
Si39   O190    1.577   1_545 S
Si39   O195    1.580   1_545 S
Si40   O153    1.611   .     S
Si40   O154    1.631   .     S
Si40   O155    1.603   .     S
Si40   O173    1.608   .     S
Si41   O156    1.585   .     S
Si41   C157    1.880   .     S
Si41   C158    1.877   .     S
Si41   O174    1.597   .     S
Si42   O159    1.637   .     S
Si42   O160    1.566   .     S
Si42   O161    1.651   .     S
Si42   O163    1.569   .     S
Si43   O163    1.625   .     S
Si43   O178    1.603   .     S
Si43   C162    1.856   1_554 S
Si43   C164    1.842   1_554 S
Si44   C165    1.829   .     S
Si44   C166    1.923   .     S
Si44   C167    1.829   .     S
Si44   O168    1.601   .     S
Si45   O169    1.617   .     S
Si45   C170    1.876   .     S
Si45   C171    1.859   .     S
Si45   C172    1.837   .     S
Si46   O173    1.617   .     S
Si46   O174    1.622   .     S
Si46   C175    1.870   .     S
Si46   C176    1.868   .     S
Si47   C177    1.847   .     S
Si47   O178    1.658   .     S
Si47   C179    1.882   .     S
Si47   C184    1.852   .     S
Si48   O180    1.610   .     S
Si48   O181    1.644   .     S
Si48   O182    1.578   .     S
Si48   O193    1.580   .     S
Si49   C185    1.931   .     S
Si49   O186    1.592   .     S
Si49   C183    1.816   1_554 S
Si49   C187    1.836   1_554 S
Si50   C188    1.854   .     S
Si50   C189    1.799   .     S
Si50   O190    1.579   .     S
Si50   O191    1.590   .     S
Si51   C192    1.842   .     S
Si51   O193    1.638   .     S
Si51   C194    1.859   .     S
Si51   O195    1.574   .     S
C52    H196    1.165   .     S
C52    H197    1.149   .     S
C52    H198    1.063   .     S
C52    Si1     1.861   1_655 S
C53    H199    1.201   .     S
C53    H200    1.089   .     S
C53    H201    1.125   .     S
C54    H202    1.117   .     S
C54    H203    1.104   .     S
C54    H204    1.106   .     S
C54    Si2     1.856   1_556 S
C55    H205    1.090   .     S
C55    H206    1.162   .     S
C55    H207    1.082   .     S
C55    Si2     1.866   1_556 S
C58    H208    1.134   .     S
C58    H209    1.159   .     S
C58    H210    1.123   .     S
C59    H211    1.128   .     S
C59    H212    1.085   .     S
C59    H213    1.139   .     S
C59    Si6     1.866   1_565 S
C60    H214    1.047   .     S
C60    H215    1.074   .     S
C60    H216    1.114   .     S
C60    Si6     1.897   1_565 S
C65    H217    1.113   .     S
C65    H218    1.096   .     S
C65    H219    1.110   .     S
C67    H220    1.044   .     S
C67    H221    1.103   .     S
C67    H222    1.085   .     S
C67    Si10    1.838   1_556 S
C68    H223    1.113   .     S
C68    H224    1.149   .     S
C68    H225    1.126   .     S
C68    Si10    1.917   1_556 S
C71    H226    1.145   .     S
C71    H227    1.092   .     S
C71    H228    1.126   .     S
C72    H229    1.120   .     S
C72    H230    1.119   .     S
C72    H231    1.111   .     S
C72    Si12    1.844   1_655 S
C73    H232    1.162   .     S
C73    H233    1.122   .     S
C73    H234    1.087   .     S
C73    Si12    1.842   1_655 S
C76    H235    1.107   .     S
C76    H236    1.085   .     S
C76    H237    1.098   .     S
C77    H238    1.107   .     S
C77    H239    1.079   .     S
C77    H240    1.093   .     S
C78    H241    1.073   .     S
C78    H242    1.085   .     S
C78    H243    1.102   .     S
C79    H244    1.075   .     S
C79    H245    1.082   .     S
C79    H246    1.062   .     S
C80    H247    1.099   .     S
C80    H248    1.132   .     S
C80    H249    1.179   .     S
C81    H250    1.066   .     S
C81    H251    1.118   .     S
C81    H252    1.100   .     S
C87    H253    1.139   .     S
C87    H254    1.084   .     S
C87    H255    1.123   .     S
C88    H256    1.119   .     S
C88    H257    1.051   .     S
C88    H258    1.095   .     S
C88    Si17    1.848   1_556 S
C89    H259    1.087   .     S
C89    H260    1.101   .     S
C89    H261    1.078   .     S
O90    Si3     1.602   1_565 S
C91    H262    1.113   .     S
C91    H263    1.036   .     S
C91    H264    1.097   .     S
C91    Si18    1.822   1_655 S
C92    H265    1.088   .     S
C92    H266    1.161   .     S
C92    H267    1.097   .     S
C92    Si18    1.891   1_655 S
C93    H268    1.107   .     S
C93    H269    1.076   .     S
C93    H270    1.129   .     S
C94    H271    1.089   .     S
C94    H272    1.082   .     S
C94    H273    1.091   .     S
O95    Si3     1.618   1_565 S
C96    H274    1.076   .     S
C96    H275    1.109   .     S
C96    H276    1.097   .     S
C98    H277    1.078   .     S
C98    H278    1.099   .     S
C98    H279    1.094   .     S
C99    H280    1.055   .     S
C99    H281    1.135   .     S
C99    H282    1.043   .     S
C99    Si21    1.925   1_565 S
C100   H283    1.118   .     S
C100   H284    1.097   .     S
C100   H285    1.135   .     S
C101   H286    1.110   .     S
C101   H287    1.071   .     S
C101   H288    1.078   .     S
C104   H289    1.146   .     S
C104   H290    1.089   .     S
C104   H291    1.162   .     S
C104   Si23    1.911   1_556 S
C105   H292    1.111   .     S
C105   H293    1.100   .     S
C105   H294    1.060   .     S
C106   H295    1.052   .     S
C106   H296    1.118   .     S
C106   H297    1.134   .     S
C108   H298    1.147   .     S
C108   H299    1.072   .     S
C108   H300    1.154   .     S
C109   H301    1.096   .     S
C109   H302    1.131   .     S
C109   H303    1.127   .     S
C111   H304    1.114   .     S
C111   H305    1.089   .     S
C111   H306    1.118   .     S
C112   H307    1.089   .     S
C112   H308    1.127   .     S
C112   H309    1.098   .     S
C113   H310    1.098   .     S
C113   H311    1.070   .     S
C113   H312    1.105   .     S
C115   H313    1.078   .     S
C115   H314    1.126   .     S
C115   H315    1.123   .     S
C116   H316    1.135   .     S
C116   H317    1.130   .     S
C116   H318    1.101   .     S
C118   H319    1.098   .     S
C118   H320    1.052   .     S
C118   H321    1.124   .     S
C121   H322    1.085   .     S
C121   H323    1.111   .     S
C121   H324    1.074   .     S
C122   H325    1.130   .     S
C122   H326    1.100   .     S
C122   H327    1.103   .     S
C123   H328    1.129   .     S
C123   H329    1.052   .     S
C123   H330    1.072   .     S
C124   H331    1.108   .     S
C124   H332    1.049   .     S
C124   H333    1.126   .     S
C125   H334    1.141   .     S
C125   H335    1.157   .     S
C125   H336    1.069   .     S
C127   H337    1.135   .     S
C127   H338    1.168   .     S
C127   H339    1.104   .     S
C128   H340    1.149   .     S
C128   H341    1.134   .     S
C128   H342    1.092   .     S
C128   Si21    1.841   1_565 S
C130   H343    1.120   .     S
C130   H344    1.147   .     S
C130   H345    1.158   .     S
O131   Si24    1.595   1_565 S
C132   H346    1.108   .     S
C132   H347    1.101   .     S
C132   H348    1.101   .     S
C134   H349    1.137   .     S
C134   H350    1.066   .     S
C134   H351    1.106   .     S
O135   Si24    1.620   1_565 S
C136   H352    1.106   .     S
C136   H353    1.038   .     S
C136   H354    1.131   .     S
C137   H355    1.137   .     S
C137   H356    1.082   .     S
C137   H357    1.112   .     S
C138   H358    1.132   .     S
C138   H359    1.075   .     S
C138   H360    1.096   .     S
O139   Si26    1.595   1_565 S
O140   Si17    1.572   1_556 S
C142   H361    1.163   .     S
C142   H362    1.114   .     S
C142   H363    1.118   .     S
O143   Si26    1.619   1_565 S
O144   Si1     1.645   1_655 S
C145   H364    1.119   .     S
C145   H365    1.122   .     S
C145   H366    1.074   .     S
C146   H367    1.125   .     S
C146   H368    1.098   .     S
C146   H369    1.122   .     S
C147   H370    1.134   .     S
C147   H371    1.155   .     S
C147   H372    1.138   .     S
C148   H373    1.125   .     S
C148   H374    1.072   .     S
C148   H375    1.096   .     S
C149   H376    1.108   .     S
C149   H377    1.113   .     S
C149   H378    1.105   .     S
C149   Si38    1.905   1_556 S
C151   H379    1.085   .     S
C151   H380    1.103   .     S
C151   H381    1.134   .     S
O152   Si4     1.612   1_655 S
O154   Si38    1.611   1_556 S
O155   Si23    1.546   1_556 S
O156   Si4     1.607   1_655 S
C157   H382    1.103   .     S
C157   H383    1.128   .     S
C157   H384    1.091   .     S
C158   H385    1.060   .     S
C158   H386    1.100   .     S
C158   H387    1.088   .     S
O161   Si9     1.564   1_655 S
C162   H388    1.089   .     S
C162   H389    1.070   .     S
C162   H390    1.074   .     S
C162   Si43    1.856   1_556 S
C164   H391    1.138   .     S
C164   H392    1.076   .     S
C164   H393    1.084   .     S
C164   Si43    1.842   1_556 S
C165   H394    1.098   .     S
C165   H395    1.070   .     S
C165   H396    1.110   .     S
C166   H397    1.112   .     S
C166   H398    1.124   .     S
C166   H399    1.145   .     S
C167   H400    1.104   .     S
C167   H401    1.087   .     S
C167   H402    1.109   .     S
O169   Si9     1.605   1_655 S
C170   H403    1.096   .     S
C170   H404    1.119   .     S
C170   H405    1.156   .     S
C171   H406    1.104   .     S
C171   H407    1.137   .     S
C171   H408    1.130   .     S
C172   H409    1.111   .     S
C172   H410    1.097   .     S
C172   H411    1.110   .     S
C175   H412    1.103   .     S
C175   H413    1.149   .     S
C175   H414    1.114   .     S
C176   H415    1.094   .     S
C176   H416    1.152   .     S
C176   H417    1.152   .     S
C177   H418    1.160   .     S
C177   H419    1.095   .     S
C177   H420    1.084   .     S
C179   H421    1.110   .     S
C179   H422    1.089   .     S
C179   H423    1.073   .     S
O181   Si36    1.627   1_565 S
C183   H424    1.029   .     S
C183   H425    1.068   .     S
C183   H426    1.088   .     S
C183   Si49    1.816   1_556 S
C184   H427    1.139   .     S
C184   H428    1.086   .     S
C184   H429    1.108   .     S
C185   H430    1.066   .     S
C185   H431    1.130   .     S
C185   H432    1.046   .     S
O186   Si36    1.553   1_565 S
C187   H433    1.150   .     S
C187   H434    1.119   .     S
C187   H435    1.136   .     S
C187   Si49    1.836   1_556 S
C188   H436    1.150   .     S
C188   H437    1.122   .     S
C188   H438    1.155   .     S
C189   H439    1.121   .     S
C189   H440    1.083   .     S
C189   H441    1.097   .     S
O190   Si39    1.577   1_565 S
C192   H442    1.103   .     S
C192   H443    1.072   .     S
C192   H444    1.092   .     S
C194   H445    1.148   .     S
C194   H446    1.124   .     S
C194   H447    1.104   .     S
O195   Si39    1.580   1_565 S
