data_333-11-11-14-15-30-11
_audit_creation_date              2025-03-07
_audit_creation_method            'Materials Studio'
_symmetry_space_group_name_H-M    'P1'
_symmetry_Int_Tables_number       1
_symmetry_cell_setting            triclinic
loop_
_symmetry_equiv_pos_as_xyz
  x,y,z
_cell_length_a                    15.9758
_cell_length_b                    17.2751
_cell_length_c                    20.7184
_cell_angle_alpha                 92.8677
_cell_angle_beta                  89.6497
_cell_angle_gamma                 122.4710
loop_
_atom_site_label
_atom_site_type_symbol
_atom_site_fract_x
_atom_site_fract_y
_atom_site_fract_z
_atom_site_U_iso_or_equiv
_atom_site_adp_type
_atom_site_occupancy
Si1    Si   -0.02475   0.20398   0.31522   0.00000  Uiso   1.00
Si2    Si    0.13146  -0.06569   0.49176   0.00000  Uiso   1.00
Si3    Si    0.12364  -0.05316   0.73021   0.00000  Uiso   1.00
Si4    Si    0.05891   0.25388   0.81657   0.00000  Uiso   1.00
Si5    Si    0.18664   0.24698   0.31446   0.00000  Uiso   1.00
Si6    Si    0.21856   0.53745   0.23626   0.00000  Uiso   1.00
Si7    Si    0.11395   0.54542  -0.06977   0.00000  Uiso   1.00
Si8    Si   -0.01277   0.48575   0.57114   0.00000  Uiso   1.00
Si9    Si    0.24759   0.57115   0.38616   0.00000  Uiso   1.00
Si10   Si    0.20376   0.45179   0.77879   0.00000  Uiso   1.00
Si11   Si   -0.02712   0.51534   0.81945   0.00000  Uiso   1.00
Si12   Si    0.14603   0.53083   0.67208   0.00000  Uiso   1.00
Si13   Si    0.12421   0.84707  -0.07344   0.00000  Uiso   1.00
Si14   Si    0.14660   0.63626   0.48159   0.00000  Uiso   1.00
Si15   Si   -0.03501   0.78636   0.56742   0.00000  Uiso   1.00
Si16   Si    0.13365   0.77811   0.41105   0.00000  Uiso   1.00
Si17   Si    0.13144   0.67552   0.74773   0.00000  Uiso   1.00
Si18   Si    0.13898   0.80871   0.64762   0.00000  Uiso   1.00
Si19   Si    0.42945   0.15594   0.25549   0.00000  Uiso   1.00
Si20   Si    0.46100  -0.04626   0.48056   0.00000  Uiso   1.00
Si21   Si    0.29715   0.10736   0.56690   0.00000  Uiso   1.00
Si22   Si    0.43888  -0.03223   0.74079   0.00000  Uiso   1.00
Si23   Si    0.44984   0.12095   0.66157   0.00000  Uiso   1.00
Si24   Si    0.39167   0.20770   0.12565   0.00000  Uiso   1.00
Si25   Si    0.40064   0.60269   0.01488   0.00000  Uiso   1.00
Si26   Si    0.80847   0.76847   0.26196   0.00000  Uiso   1.00
Si27   Si    0.47556   0.24792   0.78292   0.00000  Uiso   1.00
Si28   Si    0.31770   0.61046   0.88576   0.00000  Uiso   1.00
Si29   Si    0.38560   0.76242   0.06650   0.00000  Uiso   1.00
Si30   Si    0.40544   0.88484  -0.04080   0.00000  Uiso   1.00
Si31   Si    0.64211   0.56702   0.25941   0.00000  Uiso   1.00
Si32   Si    0.30489   0.79717   0.57066   0.00000  Uiso   1.00
Si33   Si    0.56876   0.94154   0.36609   0.00000  Uiso   1.00
Si34   Si    0.48046   0.74808   0.80043   0.00000  Uiso   1.00
Si35   Si    0.27689   0.83616   0.83975   0.00000  Uiso   1.00
Si36   Si    0.46073   0.81901   0.67387   0.00000  Uiso   1.00
Si37   Si    0.89966   0.21256   0.18473   0.00000  Uiso   1.00
Si38   Si    1.00564   0.15666   0.08547   0.00000  Uiso   1.00
Si39   Si    0.61585   0.12802   0.57024   0.00000  Uiso   1.00
Si40   Si    0.92550   0.21474   0.45708   0.00000  Uiso   1.00
Si41   Si    0.79304   0.48352  -0.09365   0.00000  Uiso   1.00
Si42   Si    0.80464   0.29499   0.50860   0.00000  Uiso   1.00
Si43   Si    0.64607   0.46725   0.58621   0.00000  Uiso   1.00
Si44   Si    0.82171   0.38949   0.38160   0.00000  Uiso   1.00
Si45   Si    0.83473   0.36338   0.72081   0.00000  Uiso   1.00
Si46   Si    0.60536   0.44431   0.83143   0.00000  Uiso   1.00
Si47   Si    0.84173   0.50907   0.63627   0.00000  Uiso   1.00
Si48   Si    0.78728   0.58914   0.02347   0.00000  Uiso   1.00
Si49   Si    0.59533   0.77285   0.58646   0.00000  Uiso   1.00
Si50   Si    0.68991   0.90365   0.83044   0.00000  Uiso   1.00
Si51   Si    0.81077   0.83346   0.62820   0.00000  Uiso   1.00
C52    C    -0.08288   0.07832   0.30409   0.00000  Uiso   1.00
C53    C     0.11332  -0.00205   0.43025   0.00000  Uiso   1.00
C54    C     0.08759   0.01508   0.68566   0.00000  Uiso   1.00
C55    C     0.22448   0.02841   0.78462   0.00000  Uiso   1.00
C56    C     0.01976   0.85100   0.76788   0.00000  Uiso   1.00
C57    C     0.11392   0.19838   0.86130   0.00000  Uiso   1.00
C58    C     1.03698   0.20785   0.72913   0.00000  Uiso   1.00
O59    O     0.09603   0.25903   0.31252   0.00000  Uiso   1.00
C60    C     0.16380   0.15784   0.25387   0.00000  Uiso   1.00
C61    C     0.20712   0.23071   0.39896   0.00000  Uiso   1.00
C62    C     0.12778   0.56828   0.20552   0.00000  Uiso   1.00
C63    C     1.35288   0.61815   0.22229   0.00000  Uiso   1.00
C64    C     0.30941   0.35132   0.29289   0.00000  Uiso   1.00
C65    C     0.10728   0.44497  -0.02800   0.00000  Uiso   1.00
C66    C     0.06428   0.59542  -0.00987   0.00000  Uiso   1.00
O67    O     0.20173   0.53051   0.31351   0.00000  Uiso   1.00
C68    C     0.23959   0.47972   0.43071   0.00000  Uiso   1.00
C69    C     0.37786   0.67259   0.38632   0.00000  Uiso   1.00
O70    O     0.13406   0.36234   0.81654   0.00000  Uiso   1.00
C71    C     0.27536   0.41479   0.72669   0.00000  Uiso   1.00
O72    O     0.04972   0.50806   0.86478   0.00000  Uiso   1.00
O73    O     0.04230   0.47965   0.63179   0.00000  Uiso   1.00
O74    O     0.13841   0.46770   0.72896   0.00000  Uiso   1.00
C75    C     0.24974   0.54465   0.62145   0.00000  Uiso   1.00
C76    C     0.15687   0.81759   0.00062   0.00000  Uiso   1.00
C77    C     0.12366   0.95862  -0.06031   0.00000  Uiso   1.00
C78    C     0.00298   0.74901   0.90339   0.00000  Uiso   1.00
O79    O     0.06174   0.54300   0.51529   0.00000  Uiso   1.00
O80    O     0.18113   0.60524   0.41829   0.00000  Uiso   1.00
O81    O     0.03317   0.87585   0.52948   0.00000  Uiso   1.00
C82    C     0.89832   0.69114   0.51130   0.00000  Uiso   1.00
C83    C     0.03892   0.74542   0.34865   0.00000  Uiso   1.00
O84    O     0.10430   0.69601   0.45844   0.00000  Uiso   1.00
O85    O     0.16071   0.86944   0.45049   0.00000  Uiso   1.00
C86    C     0.23523   0.79681   0.35846   0.00000  Uiso   1.00
O87    O     0.03324   0.60784   0.78199   0.00000  Uiso   1.00
O88    O     0.17164   0.62785   0.69986   0.00000  Uiso   1.00
O89    O     0.03188   0.76537   0.61312   0.00000  Uiso   1.00
O90    O     0.12241   0.74653   0.70804   0.00000  Uiso   1.00
O91    O     0.16703   0.90791   0.67701   0.00000  Uiso   1.00
C92    C     0.52822   0.14045   0.22965   0.00000  Uiso   1.00
C93    C     0.45150   0.22062   0.33608   0.00000  Uiso   1.00
C94    C     0.31569   0.03854   0.26069   0.00000  Uiso   1.00
C95    C     0.40309  -0.00073   0.43421   0.00000  Uiso   1.00
O96    O     0.22211   0.00577   0.53724   0.00000  Uiso   1.00
C97    C     0.38634   0.17776   0.50421   0.00000  Uiso   1.00
C98    C     0.22513   0.16623   0.57664   0.00000  Uiso   1.00
C99    C     0.53319   0.04281   0.80499   0.00000  Uiso   1.00
O100   O     0.35430   0.11533   0.63215   0.00000  Uiso   1.00
O101   O     0.41456   0.02717   0.69672   0.00000  Uiso   1.00
O102   O     0.40534   0.20461   0.20210   0.00000  Uiso   1.00
C103   C     0.40344   0.31832   0.10700   0.00000  Uiso   1.00
C104   C     0.27511   0.10336   0.09771   0.00000  Uiso   1.00
C105   C     0.50461   0.22197   0.08971   0.00000  Uiso   1.00
C106   C     0.35272   0.49020   0.05283   0.00000  Uiso   1.00
C107   C     0.73064   0.80511   0.22543   0.00000  Uiso   1.00
C108   C     0.92771   0.81626   0.21674   0.00000  Uiso   1.00
C109   C     0.83240   0.80969   0.35145   0.00000  Uiso   1.00
C110   C     0.45642   0.18109   0.85658   0.00000  Uiso   1.00
O111   O     0.49034   0.19751   0.71780   0.00000  Uiso   1.00
C112   C     0.36536   0.25573   0.76599   0.00000  Uiso   1.00
O113   O     0.27845   0.53761   0.82403   0.00000  Uiso   1.00
O114   O     0.36324   0.58299   0.94045   0.00000  Uiso   1.00
O115   O     0.22941   0.61510   0.91321   0.00000  Uiso   1.00
C116   C     0.30034   0.76133   0.13078   0.00000  Uiso   1.00
O117   O     0.35945   0.66093   0.05014   0.00000  Uiso   1.00
C118   C     0.51600   0.83399   0.10141   0.00000  Uiso   1.00
O119   O     0.36890   0.80248   0.00313   0.00000  Uiso   1.00
C120   C     0.39985   0.98665  -0.01008   0.00000  Uiso   1.00
C121   C     0.56276   0.56637   0.19148   0.00000  Uiso   1.00
O122   O     0.75353   0.66138   0.25574   0.00000  Uiso   1.00
O123   O     0.24622   0.70335   0.52525   0.00000  Uiso   1.00
O124   O     0.38853   0.87967   0.53089   0.00000  Uiso   1.00
O125   O     0.22317   0.81766   0.59590   0.00000  Uiso   1.00
C126   C     0.49631   0.91329   0.28739   0.00000  Uiso   1.00
C127   C     0.58944   0.57090   0.33755   0.00000  Uiso   1.00
C128   C     0.63884   0.88277   0.35689   0.00000  Uiso   1.00
O129   O     0.50458   0.91318   0.42830   0.00000  Uiso   1.00
C130   C     0.67058   1.06385   0.37390   0.00000  Uiso   1.00
O131   O     0.40509   0.70542   0.85841   0.00000  Uiso   1.00
C132   C     0.52204   0.67529   0.76626   0.00000  Uiso   1.00
O133   O     0.20726   0.73511   0.80780   0.00000  Uiso   1.00
O134   O     0.35230   0.84257   0.89163   0.00000  Uiso   1.00
O135   O     0.33664   0.89807   0.78070   0.00000  Uiso   1.00
O136   O     0.20713   0.86332   0.87466   0.00000  Uiso   1.00
O137   O     0.35823   0.77639   0.63006   0.00000  Uiso   1.00
O138   O     0.43497   0.76505   0.73895   0.00000  Uiso   1.00
O139   O     0.48625   0.91921   0.69958   0.00000  Uiso   1.00
O140   O     0.93398   0.23237   0.25894   0.00000  Uiso   1.00
C141   C     0.89217   1.30670   0.15327   0.00000  Uiso   1.00
C142   C     0.77931   1.09987   0.17885   0.00000  Uiso   1.00
C143   C     0.93839   0.23030   0.84457   0.00000  Uiso   1.00
C144   C     1.13587   0.23712   1.06322   0.00000  Uiso   1.00
O145   O     0.97763   0.19670   0.14760   0.00000  Uiso   1.00
C146   C     0.91813   0.13719   0.01825   0.00000  Uiso   1.00
C147   C     0.99723   0.04696   1.10577   0.00000  Uiso   1.00
O148   O     0.55823   0.04588   0.51305   0.00000  Uiso   1.00
C149   C     0.67811   0.08638   0.62212   0.00000  Uiso   1.00
O150   O     0.53708   0.14236   0.60900   0.00000  Uiso   1.00
O151   O     0.94435   0.23277   0.38278   0.00000  Uiso   1.00
C152   C     0.88520   0.09569   0.47314   0.00000  Uiso   1.00
C153   C     1.04017   0.28693   0.50417   0.00000  Uiso   1.00
O154   O     0.89314   0.51608   0.86697   0.00000  Uiso   1.00
C155   C     0.74579   0.37137  -0.05368   0.00000  Uiso   1.00
O156   O     0.70347   0.23508   0.54992   0.00000  Uiso   1.00
O157   O     0.84004   0.22861   0.48245   0.00000  Uiso   1.00
O158   O     0.89505   0.37899   0.54958   0.00000  Uiso   1.00
C159   C     0.55353   0.36923   0.63130   0.00000  Uiso   1.00
C160   C     0.60702   0.42857   0.49952   0.00000  Uiso   1.00
C161   C     0.64847   0.57187   0.60039   0.00000  Uiso   1.00
C162   C     1.18084   0.42459   0.19551   0.00000  Uiso   1.00
C163   C     0.95098   0.42540   0.36555   0.00000  Uiso   1.00
C164   C     0.73667   0.31386   0.31551   0.00000  Uiso   1.00
O165   O     0.78271   0.33383   0.44643   0.00000  Uiso   1.00
C166   C     0.81693   0.49321   0.38896   0.00000  Uiso   1.00
C167   C     0.72222   0.28610   0.76540   0.00000  Uiso   1.00
C168   C     0.86816   0.29068   0.68002   0.00000  Uiso   1.00
O169   O     0.92151   0.42953   0.76982   0.00000  Uiso   1.00
O170   O     0.56162   0.35108   0.78975   0.00000  Uiso   1.00
O171   O     0.71457   0.47819   0.85568   0.00000  Uiso   1.00
C172   C     0.61246   0.53322   0.78490   0.00000  Uiso   1.00
C173   C     0.52358   0.43548   0.90155   0.00000  Uiso   1.00
C174   C     0.54090   0.66577   1.01301   0.00000  Uiso   1.00
O175   O     0.93601   0.53612   0.59685   0.00000  Uiso   1.00
O176   O     0.75544   0.48883   0.58781   0.00000  Uiso   1.00
O177   O     0.80967   0.41833   0.67554   0.00000  Uiso   1.00
C178   C     0.86800   0.60392   0.69643   0.00000  Uiso   1.00
C179   C     0.65889   0.49489   0.04903   0.00000  Uiso   1.00
O180   O     0.81632   0.56627  -0.04445   0.00000  Uiso   1.00
C181   C     0.77822   0.69151   0.02061   0.00000  Uiso   1.00
C182   C     0.87877   0.60262   0.08350   0.00000  Uiso   1.00
C183   C     0.65118   0.46124   0.24340   0.00000  Uiso   1.00
C184   C     0.49612   0.65050   0.56924   0.00000  Uiso   1.00
C185   C     0.61805   0.83314   0.50982   0.00000  Uiso   1.00
O186   O     0.54873   0.81668   0.63723   0.00000  Uiso   1.00
O187   O     0.56999   0.83857   0.82755   0.00000  Uiso   1.00
C188   C     0.74294   0.83016   0.85833   0.00000  Uiso   1.00
C189   C     0.73413   0.96630   0.75302   0.00000  Uiso   1.00
C190   C     0.74120   0.99325   0.88935   0.00000  Uiso   1.00
C191   C     0.54094   0.93942   0.95852   0.00000  Uiso   1.00
O192   O     0.87608   0.78815   0.60533   0.00000  Uiso   1.00
O193   O     0.69430   0.77374   0.61288   0.00000  Uiso   1.00
C194   C     0.81803   0.84233   0.71520   0.00000  Uiso   1.00
C195   C     0.85971   0.94651   0.59116   0.00000  Uiso   1.00
H196   H    -0.16170   0.04180   0.32009   0.00000  Uiso   1.00
H197   H    -0.03991   0.06305   0.33284   0.00000  Uiso   1.00
H198   H    -0.07291   0.06046   0.25350   0.00000  Uiso   1.00
H199   H     0.06063  -0.04144   0.39163   0.00000  Uiso   1.00
H200   H     0.18488   0.03742   0.40358   0.00000  Uiso   1.00
H201   H     0.09588   0.04778   0.46064   0.00000  Uiso   1.00
H202   H     0.02560   0.01483   0.71189   0.00000  Uiso   1.00
H203   H     0.07084  -0.00258   0.63147   0.00000  Uiso   1.00
H204   H     0.15096   0.08642   0.68691   0.00000  Uiso   1.00
H205   H     0.28794   0.07090   0.75561   0.00000  Uiso   1.00
H206   H     0.25428   0.00336   0.81246   0.00000  Uiso   1.00
H207   H     0.20470   0.06962   0.81655   0.00000  Uiso   1.00
H208   H     0.06043   0.82026   0.79197   0.00000  Uiso   1.00
H209   H    -0.02833   0.80323   0.72632   0.00000  Uiso   1.00
H210   H    -0.00950   0.87309   0.80883   0.00000  Uiso   1.00
H211   H     0.05046   0.13508   0.88305   0.00000  Uiso   1.00
H212   H     0.16514   0.25324   0.89763   0.00000  Uiso   1.00
H213   H     0.16416   0.18524   0.83293   0.00000  Uiso   1.00
H214   H     1.01175   0.24479   0.70411   0.00000  Uiso   1.00
H215   H     0.97577   0.13618   0.72602   0.00000  Uiso   1.00
H216   H     1.10133   0.20877   0.70531   0.00000  Uiso   1.00
H217   H     0.23679   0.16720   0.24045   0.00000  Uiso   1.00
H218   H     0.13529   0.16917   0.21116   0.00000  Uiso   1.00
H219   H     0.11108   0.08646   0.27041   0.00000  Uiso   1.00
H220   H     0.24935   0.29708   0.42815   0.00000  Uiso   1.00
H221   H     0.25658   0.20396   0.39803   0.00000  Uiso   1.00
H222   H     0.13136   0.17738   0.42325   0.00000  Uiso   1.00
H223   H     0.11187   0.54806   0.15277   0.00000  Uiso   1.00
H224   H     0.16672   0.64567   0.21059   0.00000  Uiso   1.00
H225   H     0.06303   0.55026   0.23417   0.00000  Uiso   1.00
H226   H     1.37394   0.62858   0.17173   0.00000  Uiso   1.00
H227   H     1.38772   0.58526   0.24414   0.00000  Uiso   1.00
H228   H     1.38980   0.69018   0.24464   0.00000  Uiso   1.00
H229   H     0.36335   0.33927   0.31457   0.00000  Uiso   1.00
H230   H     0.31999   0.41756   0.31162   0.00000  Uiso   1.00
H231   H     0.32352   0.34840   0.23893   0.00000  Uiso   1.00
H232   H     0.02549   0.38962  -0.02215   0.00000  Uiso   1.00
H233   H     0.14231   0.47633   0.01929   0.00000  Uiso   1.00
H234   H     0.14694   0.41332  -0.05035   0.00000  Uiso   1.00
H235   H     0.04976   0.64457  -0.02584   0.00000  Uiso   1.00
H236   H     0.11550   0.62904   0.03656   0.00000  Uiso   1.00
H237   H    -0.00333   0.53266   0.00441   0.00000  Uiso   1.00
H238   H     0.17321   0.41477   0.41370   0.00000  Uiso   1.00
H239   H     0.22928   0.49313   0.48316   0.00000  Uiso   1.00
H240   H     0.30214   0.47536   0.41738   0.00000  Uiso   1.00
H241   H     0.42300   0.64903   0.35742   0.00000  Uiso   1.00
H242   H     0.41133   0.70159   0.43803   0.00000  Uiso   1.00
H243   H     0.38361   0.72804   0.35640   0.00000  Uiso   1.00
H244   H     0.33614   0.47058   0.70281   0.00000  Uiso   1.00
H245   H     0.22925   0.36281   0.68788   0.00000  Uiso   1.00
H246   H     0.31898   0.39825   0.75411   0.00000  Uiso   1.00
H247   H     0.31611   0.58448   0.65105   0.00000  Uiso   1.00
H248   H     0.26397   0.59057   0.58064   0.00000  Uiso   1.00
H249   H     0.23510   0.47580   0.60280   0.00000  Uiso   1.00
H250   H     0.21801   0.88577   0.02322   0.00000  Uiso   1.00
H251   H     0.18260   0.77501  -0.01981   0.00000  Uiso   1.00
H252   H     0.09888   0.78007   0.03610   0.00000  Uiso   1.00
H253   H     0.08333   0.94972  -0.01599   0.00000  Uiso   1.00
H254   H     0.07924   0.96227  -0.09768   0.00000  Uiso   1.00
H255   H     0.20093   1.01938  -0.05606   0.00000  Uiso   1.00
H256   H     0.02620   0.70972   0.87099   0.00000  Uiso   1.00
H257   H    -0.04825   0.76127   0.87775   0.00000  Uiso   1.00
H258   H    -0.03670   0.71409   0.94662   0.00000  Uiso   1.00
H259   H     0.87324   0.71043   0.47066   0.00000  Uiso   1.00
H260   H     0.83338   0.64178   0.53900   0.00000  Uiso   1.00
H261   H     0.94305   0.66114   0.49842   0.00000  Uiso   1.00
H262   H     0.02170   0.79712   0.34230   0.00000  Uiso   1.00
H263   H    -0.03541   0.68039   0.36456   0.00000  Uiso   1.00
H264   H     0.05864   0.72330   0.30252   0.00000  Uiso   1.00
H265   H     0.21534   0.73010   0.33475   0.00000  Uiso   1.00
H266   H     0.30201   0.81993   0.38751   0.00000  Uiso   1.00
H267   H     0.25629   0.85054   0.32398   0.00000  Uiso   1.00
H268   H     0.56539   0.13492   0.27377   0.00000  Uiso   1.00
H269   H     0.57562   0.20445   0.20402   0.00000  Uiso   1.00
H270   H     0.50182   0.07938   0.19340   0.00000  Uiso   1.00
H271   H     0.46667   0.19122   0.37745   0.00000  Uiso   1.00
H272   H     0.37821   0.20694   0.34748   0.00000  Uiso   1.00
H273   H     0.50708   0.29716   0.33179   0.00000  Uiso   1.00
H274   H     0.28963  -0.00837   0.21637   0.00000  Uiso   1.00
H275   H     0.25420   0.04543   0.27805   0.00000  Uiso   1.00
H276   H     0.32883   0.00730   0.30374   0.00000  Uiso   1.00
H277   H     0.45201   0.03550   0.39465   0.00000  Uiso   1.00
H278   H     0.40052   0.04417   0.47030   0.00000  Uiso   1.00
H279   H     0.32479  -0.04813   0.41925   0.00000  Uiso   1.00
H280   H     0.36078   0.14832   0.45636   0.00000  Uiso   1.00
H281   H     0.46405   0.19030   0.50992   0.00000  Uiso   1.00
H282   H     0.40277   0.24787   0.50738   0.00000  Uiso   1.00
H283   H     0.14571   0.11670   0.57593   0.00000  Uiso   1.00
H284   H     0.23882   0.21062   0.53562   0.00000  Uiso   1.00
H285   H     0.25420   0.21311   0.62137   0.00000  Uiso   1.00
H286   H     0.49627   0.02692   0.85142   0.00000  Uiso   1.00
H287   H     0.56453   0.11603   0.79446   0.00000  Uiso   1.00
H288   H     0.59613   0.03055   0.80656   0.00000  Uiso   1.00
H289   H     0.37555   0.31628   0.05872   0.00000  Uiso   1.00
H290   H     0.47282   0.37921   0.12163   0.00000  Uiso   1.00
H291   H     0.35332   0.33026   0.13993   0.00000  Uiso   1.00
H292   H     0.28001   0.04284   0.10552   0.00000  Uiso   1.00
H293   H     0.26841   0.10572   0.04251   0.00000  Uiso   1.00
H294   H     0.20962   0.10137   0.12173   0.00000  Uiso   1.00
H295   H     0.57174   0.28010   0.11771   0.00000  Uiso   1.00
H296   H     0.50082   0.24109   0.03909   0.00000  Uiso   1.00
H297   H     0.49674   0.15130   0.08907   0.00000  Uiso   1.00
H298   H     0.28012   0.42978   0.03027   0.00000  Uiso   1.00
H299   H     0.36130   0.50357   0.10588   0.00000  Uiso   1.00
H300   H     0.40810   0.47453   0.03905   0.00000  Uiso   1.00
H301   H     0.77228   0.88107   0.23286   0.00000  Uiso   1.00
H302   H     0.65186   0.76685   0.24468   0.00000  Uiso   1.00
H303   H     0.72403   0.79469   0.17060   0.00000  Uiso   1.00
H304   H     0.98016   0.88625   0.23574   0.00000  Uiso   1.00
H305   H     0.91319   0.81414   0.16358   0.00000  Uiso   1.00
H306   H     0.95345   0.77312   0.23173   0.00000  Uiso   1.00
H307   H     0.86401   0.77167   0.37488   0.00000  Uiso   1.00
H308   H     0.76114   0.79387   0.37002   0.00000  Uiso   1.00
H309   H     0.88780   0.88344   0.36057   0.00000  Uiso   1.00
H310   H     0.41575   0.10728   0.84587   0.00000  Uiso   1.00
H311   H     0.40820   0.18694   0.88918   0.00000  Uiso   1.00
H312   H     0.53259   0.20678   0.88249   0.00000  Uiso   1.00
H313   H     0.33122   0.26202   0.81333   0.00000  Uiso   1.00
H314   H     0.31257   0.19876   0.73601   0.00000  Uiso   1.00
H315   H     0.40330   0.32377   0.74630   0.00000  Uiso   1.00
H316   H     0.33315   0.77186   0.17988   0.00000  Uiso   1.00
H317   H     0.22408   0.69287   0.12073   0.00000  Uiso   1.00
H318   H     0.29059   0.81680   0.12608   0.00000  Uiso   1.00
H319   H     0.50990   0.78549   0.13904   0.00000  Uiso   1.00
H320   H     0.52650   0.90026   0.11959   0.00000  Uiso   1.00
H321   H     0.56802   0.84037   0.06013   0.00000  Uiso   1.00
H322   H     0.46984   1.05107  -0.02290   0.00000  Uiso   1.00
H323   H     0.38853   0.98463   0.04502   0.00000  Uiso   1.00
H324   H     0.33827   0.98899  -0.03158   0.00000  Uiso   1.00
H325   H     0.60035   0.58704   0.14593   0.00000  Uiso   1.00
H326   H     0.53814   0.61268   0.20453   0.00000  Uiso   1.00
H327   H     0.48837   0.50054   0.18751   0.00000  Uiso   1.00
H328   H     0.53986   0.90657   0.24590   0.00000  Uiso   1.00
H329   H     0.47503   0.96215   0.27788   0.00000  Uiso   1.00
H330   H     0.42870   0.84538   0.29026   0.00000  Uiso   1.00
H331   H     0.65555   0.59439   0.37112   0.00000  Uiso   1.00
H332   H     0.52702   0.50327   0.35147   0.00000  Uiso   1.00
H333   H     0.56854   0.62203   0.34006   0.00000  Uiso   1.00
H334   H     0.68652   0.90774   0.31482   0.00000  Uiso   1.00
H335   H     0.59503   0.81338   0.35101   0.00000  Uiso   1.00
H336   H     0.68918   0.90047   0.39875   0.00000  Uiso   1.00
H337   H     0.72089   1.07607   0.41360   0.00000  Uiso   1.00
H338   H     0.63948   1.10685   0.38069   0.00000  Uiso   1.00
H339   H     0.71012   1.08788   0.32826   0.00000  Uiso   1.00
H340   H     0.57989   0.71124   0.72786   0.00000  Uiso   1.00
H341   H     0.45410   0.61165   0.74086   0.00000  Uiso   1.00
H342   H     0.54376   0.65404   0.80814   0.00000  Uiso   1.00
H343   H     0.84786   1.27712   0.10684   0.00000  Uiso   1.00
H344   H     0.96611   1.36778   0.14412   0.00000  Uiso   1.00
H345   H     0.85215   1.32373   0.18809   0.00000  Uiso   1.00
H346   H     0.72946   1.09230   0.22041   0.00000  Uiso   1.00
H347   H     0.79171   1.04517   0.19075   0.00000  Uiso   1.00
H348   H     0.74074   1.08594   0.13378   0.00000  Uiso   1.00
H349   H     0.87787   0.15795   0.83218   0.00000  Uiso   1.00
H350   H     0.93412   0.28142   0.82172   0.00000  Uiso   1.00
H351   H     0.94420   0.24531   0.89621   0.00000  Uiso   1.00
H352   H     1.13891   0.29613   1.04673   0.00000  Uiso   1.00
H353   H     1.15163   0.20175   1.02438   0.00000  Uiso   1.00
H354   H     1.18266   0.24622   1.10541   0.00000  Uiso   1.00
H355   H     0.93544   0.10177  -0.02352   0.00000  Uiso   1.00
H356   H     0.92768   0.20484   0.00157   0.00000  Uiso   1.00
H357   H     0.84428   0.09152   0.03292   0.00000  Uiso   1.00
H358   H     1.00436   0.00945   1.06721   0.00000  Uiso   1.00
H359   H     0.92837  -0.00251   1.12951   0.00000  Uiso   1.00
H360   H     1.05402   0.06233   1.14055   0.00000  Uiso   1.00
H361   H     0.75151   0.11295   0.60418   0.00000  Uiso   1.00
H362   H     0.64142   0.01159   0.61769   0.00000  Uiso   1.00
H363   H     0.67926   0.10447   0.67292   0.00000  Uiso   1.00
H364   H     0.85419   0.08238   0.52000   0.00000  Uiso   1.00
H365   H     0.95271   0.08490   0.47610   0.00000  Uiso   1.00
H366   H     0.83125   0.04452   0.43879   0.00000  Uiso   1.00
H367   H     1.03884   0.27491   0.55822   0.00000  Uiso   1.00
H368   H     1.05169   0.35582   0.50999   0.00000  Uiso   1.00
H369   H     1.10519   0.29571   0.47906   0.00000  Uiso   1.00
H370   H     0.67287   0.33384  -0.02843   0.00000  Uiso   1.00
H371   H     0.79855   0.38004  -0.01822   0.00000  Uiso   1.00
H372   H     0.74645   0.32824  -0.09319   0.00000  Uiso   1.00
H373   H     0.56123   0.39019   0.68382   0.00000  Uiso   1.00
H374   H     0.57816   0.31568   0.62616   0.00000  Uiso   1.00
H375   H     0.48146   0.34202   0.61180   0.00000  Uiso   1.00
H376   H     0.64275   0.48729   0.46768   0.00000  Uiso   1.00
H377   H     0.52956   0.40017   0.49397   0.00000  Uiso   1.00
H378   H     0.61801   0.37308   0.47699   0.00000  Uiso   1.00
H379   H     0.57214   0.55776   0.60858   0.00000  Uiso   1.00
H380   H     0.68000   0.61004   0.55776   0.00000  Uiso   1.00
H381   H     0.69164   0.60779   0.64312   0.00000  Uiso   1.00
H382   H     1.24173   0.40933   0.19996   0.00000  Uiso   1.00
H383   H     1.18129   0.44128   0.14509   0.00000  Uiso   1.00
H384   H     1.10415   0.37415   0.20845   0.00000  Uiso   1.00
H385   H     0.95341   0.38091   0.32736   0.00000  Uiso   1.00
H386   H     0.98952   0.42355   0.40720   0.00000  Uiso   1.00
H387   H     0.99413   0.50045   0.34687   0.00000  Uiso   1.00
H388   H     0.76047   0.34975   0.26997   0.00000  Uiso   1.00
H389   H     0.66094   0.28744   0.33445   0.00000  Uiso   1.00
H390   H     0.75178   0.26164   0.30583   0.00000  Uiso   1.00
H391   H     0.73813   0.48014   0.39283   0.00000  Uiso   1.00
H392   H     0.84923   0.52720   0.34155   0.00000  Uiso   1.00
H393   H     0.86083   0.53515   0.42921   0.00000  Uiso   1.00
H394   H     0.73480   0.23394   0.78238   0.00000  Uiso   1.00
H395   H     0.65938   0.25837   0.73527   0.00000  Uiso   1.00
H396   H     0.72128   0.32649   0.80569   0.00000  Uiso   1.00
H397   H     0.82344   0.25514   0.63622   0.00000  Uiso   1.00
H398   H     0.85343   0.23817   0.71696   0.00000  Uiso   1.00
H399   H     0.95163   0.34060   0.67582   0.00000  Uiso   1.00
H400   H     0.53818   0.51643   0.76583   0.00000  Uiso   1.00
H401   H     0.66200   0.54581   0.74346   0.00000  Uiso   1.00
H402   H     0.64796   0.59984   0.81338   0.00000  Uiso   1.00
H403   H     0.50700   0.37800   0.93028   0.00000  Uiso   1.00
H404   H     0.45143   0.42111   0.88470   0.00000  Uiso   1.00
H405   H     0.57437   0.50251   0.92959   0.00000  Uiso   1.00
H406   H     0.57034   0.65969   1.06086   0.00000  Uiso   1.00
H407   H     0.56656   0.73713   0.99655   0.00000  Uiso   1.00
H408   H     0.56181   0.63539   0.97291   0.00000  Uiso   1.00
H409   H     0.94114   0.63913   0.71787   0.00000  Uiso   1.00
H410   H     0.81511   0.57840   0.73700   0.00000  Uiso   1.00
H411   H     0.85684   0.65615   0.67208   0.00000  Uiso   1.00
H412   H     0.64251   0.42359   0.03155   0.00000  Uiso   1.00
H413   H     0.59708   0.50009   0.02809   0.00000  Uiso   1.00
H414   H     0.65845   0.49382   0.10095   0.00000  Uiso   1.00
H415   H     0.84964   0.75632   0.01584   0.00000  Uiso   1.00
H416   H     0.73940   0.69208   0.06397   0.00000  Uiso   1.00
H417   H     0.72456   0.67192  -0.02170   0.00000  Uiso   1.00
H418   H     0.87573   0.53896   0.09055   0.00000  Uiso   1.00
H419   H     0.86491   0.62604   0.13089   0.00000  Uiso   1.00
H420   H     0.94941   0.65657   0.06449   0.00000  Uiso   1.00
H421   H     0.69274   0.47331   0.20014   0.00000  Uiso   1.00
H422   H     0.57131   0.39795   0.23326   0.00000  Uiso   1.00
H423   H     0.68370   0.45152   0.28525   0.00000  Uiso   1.00
H424   H     0.47625   0.61204   0.61177   0.00000  Uiso   1.00
H425   H     0.52872   0.62385   0.53349   0.00000  Uiso   1.00
H426   H     0.43592   0.64876   0.54193   0.00000  Uiso   1.00
H427   H     0.67888   0.90162   0.51249   0.00000  Uiso   1.00
H428   H     0.55496   0.83291   0.49852   0.00000  Uiso   1.00
H429   H     0.62050   0.78750   0.47343   0.00000  Uiso   1.00
H430   H     0.71820   0.76816   0.82497   0.00000  Uiso   1.00
H431   H     0.72136   0.81903   0.91241   0.00000  Uiso   1.00
H432   H     0.82121   0.87355   0.85750   0.00000  Uiso   1.00
H433   H     0.73288   1.02757   0.76244   0.00000  Uiso   1.00
H434   H     0.68189   0.92933   0.70835   0.00000  Uiso   1.00
H435   H     0.81378   0.98884   0.74217   0.00000  Uiso   1.00
H436   H     0.82327   1.02338   0.88797   0.00000  Uiso   1.00
H437   H     0.71611   0.96761   0.93807   0.00000  Uiso   1.00
H438   H     0.72203   1.04351   0.88008   0.00000  Uiso   1.00
H439   H     0.56413   0.98384   0.91751   0.00000  Uiso   1.00
H440   H     0.55631   0.88002   0.95453   0.00000  Uiso   1.00
H441   H     0.57178   0.98309   1.00191   0.00000  Uiso   1.00
H442   H     0.82055   0.78443   0.73218   0.00000  Uiso   1.00
H443   H     0.74712   0.82517   0.72953   0.00000  Uiso   1.00
H444   H     0.88293   0.90889   0.73935   0.00000  Uiso   1.00
H445   H     0.83958   0.98884   0.61917   0.00000  Uiso   1.00
H446   H     0.81817   0.92213   0.54408   0.00000  Uiso   1.00
H447   H     0.94219   0.98553   0.58598   0.00000  Uiso   1.00
loop_
_geom_bond_atom_site_label_1
_geom_bond_atom_site_label_2
_geom_bond_distance
_geom_bond_site_symmetry_2
_ccdc_geom_bond_type
Si1    C52     1.848   .     S
Si1    O59     1.632   .     S
Si1    O140    1.565   1_455 S
Si1    O151    1.623   1_455 S
Si2    C53     1.845   .     S
Si2    O96     1.578   .     S
Si2    O81     1.568   1_545 S
Si2    O85     1.633   1_545 S
Si3    C54     1.849   .     S
Si3    C55     1.810   .     S
Si3    C56     1.808   1_545 S
Si3    O91     1.601   1_545 S
Si4    C57     1.885   .     S
Si4    O70     1.593   .     S
Si4    C58     1.898   1_455 S
Si4    C143    1.838   1_455 S
Si5    O59     1.570   .     S
Si5    C60     1.814   .     S
Si5    C61     1.845   .     S
Si5    C64     1.889   .     S
Si6    C62     1.915   .     S
Si6    O67     1.621   .     S
Si6    C63     1.858   1_455 S
Si6    C162    1.859   1_455 S
Si7    C65     1.929   .     S
Si7    C66     1.879   .     S
Si7    O72     1.590   1_554 S
Si7    O115    1.621   1_554 S
Si8    O73     1.578   .     S
Si8    O79     1.602   .     S
Si8    O158    1.667   1_455 S
Si8    O175    1.557   1_455 S
Si9    O67     1.628   .     S
Si9    C68     1.814   .     S
Si9    C69     1.867   .     S
Si9    O80     1.594   .     S
Si10   O70     1.582   .     S
Si10   C71     1.893   .     S
Si10   O74     1.607   .     S
Si10   O113    1.573   .     S
Si11   O72     1.611   .     S
Si11   O87     1.596   .     S
Si11   O154    1.610   1_455 S
Si11   O169    1.575   1_455 S
Si12   O73     1.611   .     S
Si12   O74     1.605   .     S
Si12   C75     1.866   .     S
Si12   O88     1.574   .     S
Si13   C76     1.806   .     S
Si13   C77     1.937   .     S
Si13   C78     1.805   1_554 S
Si13   O136    1.613   1_554 S
Si14   O79     1.636   .     S
Si14   O80     1.597   .     S
Si14   O84     1.598   .     S
Si14   O123    1.621   .     S
Si15   O81     1.580   .     S
Si15   O89     1.623   .     S
Si15   C82     1.771   1_455 S
Si15   O192    1.633   1_455 S
Si16   C83     1.820   .     S
Si16   O84     1.617   .     S
Si16   O85     1.577   .     S
Si16   C86     1.837   .     S
Si17   O87     1.560   .     S
Si17   O88     1.598   .     S
Si17   O90     1.579   .     S
Si17   O133    1.621   .     S
Si18   O89     1.608   .     S
Si18   O90     1.618   .     S
Si18   O91     1.607   .     S
Si18   O125    1.660   .     S
Si19   C92     1.810   .     S
Si19   C93     1.886   .     S
Si19   C94     1.868   .     S
Si19   O102    1.589   .     S
Si20   C95     1.807   .     S
Si20   O148    1.628   .     S
Si20   O124    1.610   1_545 S
Si20   O129    1.608   1_545 S
Si21   O96     1.593   .     S
Si21   C97     1.863   .     S
Si21   C98     1.906   .     S
Si21   O100    1.594   .     S
Si22   C99     1.864   .     S
Si22   O101    1.601   .     S
Si22   O135    1.665   1_545 S
Si22   O139    1.615   1_545 S
Si23   O100    1.599   .     S
Si23   O101    1.614   .     S
Si23   O111    1.569   .     S
Si23   O150    1.653   .     S
Si24   O102    1.608   .     S
Si24   C103    1.877   .     S
Si24   C104    1.832   .     S
Si24   C105    1.843   .     S
Si25   C106    1.879   .     S
Si25   O117    1.616   .     S
Si25   O114    1.610   1_554 S
Si25   C174    1.895   1_554 S
Si26   C107    1.850   .     S
Si26   C108    1.885   .     S
Si26   C109    1.917   .     S
Si26   O122    1.563   .     S
Si27   C110    1.883   .     S
Si27   O111    1.653   .     S
Si27   C112    1.873   .     S
Si27   O170    1.560   .     S
Si28   O113    1.617   .     S
Si28   O114    1.572   .     S
Si28   O115    1.558   .     S
Si28   O131    1.608   .     S
Si29   C116    1.893   .     S
Si29   O117    1.587   .     S
Si29   C118    1.885   .     S
Si29   O119    1.602   .     S
Si30   O119    1.557   .     S
Si30   C120    1.887   .     S
Si30   O134    1.568   1_554 S
Si30   C191    1.840   1_554 S
Si31   C121    1.895   .     S
Si31   O122    1.651   .     S
Si31   C127    1.835   .     S
Si31   C183    1.922   .     S
Si32   O123    1.618   .     S
Si32   O124    1.598   .     S
Si32   O125    1.604   .     S
Si32   O137    1.660   .     S
Si33   C126    1.890   .     S
Si33   C128    1.876   .     S
Si33   O129    1.569   .     S
Si33   C130    1.848   .     S
Si34   O131    1.598   .     S
Si34   C132    1.824   .     S
Si34   O138    1.586   .     S
Si34   O187    1.525   .     S
Si35   O133    1.591   .     S
Si35   O134    1.575   .     S
Si35   O135    1.604   .     S
Si35   O136    1.582   .     S
Si36   O137    1.644   .     S
Si36   O138    1.601   .     S
Si36   O139    1.612   .     S
Si36   O186    1.612   .     S
Si37   O140    1.593   .     S
Si37   O145    1.598   .     S
Si37   C141    1.844   1_545 S
Si37   C142    1.861   1_545 S
Si38   O145    1.604   .     S
Si38   C146    1.865   .     S
Si38   C144    1.849   1_554 S
Si38   C147    1.895   1_554 S
Si39   O148    1.645   .     S
Si39   C149    1.876   .     S
Si39   O150    1.610   .     S
Si39   O156    1.688   .     S
Si40   O151    1.581   .     S
Si40   C152    1.844   .     S
Si40   C153    1.819   .     S
Si40   O157    1.590   .     S
Si41   C155    1.895   .     S
Si41   O180    1.584   .     S
Si41   O154    1.614   1_554 S
Si41   O171    1.601   1_554 S
Si42   O156    1.641   .     S
Si42   O157    1.600   .     S
Si42   O158    1.598   .     S
Si42   O165    1.605   .     S
Si43   C159    1.838   .     S
Si43   C160    1.873   .     S
Si43   C161    1.796   .     S
Si43   O176    1.579   .     S
Si44   C163    1.843   .     S
Si44   C164    1.835   .     S
Si44   O165    1.610   .     S
Si44   C166    1.833   .     S
Si45   C167    1.842   .     S
Si45   C168    1.785   .     S
Si45   O169    1.568   .     S
Si45   O177    1.563   .     S
Si46   O170    1.577   .     S
Si46   O171    1.589   .     S
Si46   C172    1.806   .     S
Si46   C173    1.904   .     S
Si47   O175    1.556   .     S
Si47   O176    1.580   .     S
Si47   O177    1.625   .     S
Si47   C178    1.865   .     S
Si48   C179    1.904   .     S
Si48   O180    1.576   .     S
Si48   C181    1.854   .     S
Si48   C182    1.834   .     S
Si49   C184    1.855   .     S
Si49   C185    1.868   .     S
Si49   O186    1.658   .     S
Si49   O193    1.668   .     S
Si50   O187    1.619   .     S
Si50   C188    1.974   .     S
Si50   C189    1.893   .     S
Si50   C190    1.737   .     S
Si51   O192    1.661   .     S
Si51   O193    1.594   .     S
Si51   C194    1.800   .     S
Si51   C195    1.875   .     S
C52    H196    1.121   .     S
C52    H197    1.054   .     S
C52    H198    1.112   .     S
C53    H199    1.073   .     S
C53    H200    1.127   .     S
C53    H201    1.190   .     S
C54    H202    1.125   .     S
C54    H203    1.143   .     S
C54    H204    1.096   .     S
C55    H205    1.080   .     S
C55    H206    0.998   .     S
C55    H207    1.112   .     S
C56    H208    1.164   .     S
C56    H209    1.127   .     S
C56    H210    1.113   .     S
C56    Si3     1.808   1_565 S
C57    H211    1.131   .     S
C57    H212    1.112   .     S
C57    H213    1.104   .     S
C58    H214    1.073   .     S
C58    H215    1.089   .     S
C58    H216    1.130   .     S
C58    Si4     1.898   1_655 S
C60    H217    1.123   .     S
C60    H218    1.071   .     S
C60    H219    1.127   .     S
C61    H220    1.114   .     S
C61    H221    1.109   .     S
C61    H222    1.187   .     S
C62    H223    1.118   .     S
C62    H224    1.131   .     S
C62    H225    1.088   .     S
C63    H226    1.092   .     S
C63    H227    1.098   .     S
C63    H228    1.126   .     S
C63    Si6     1.858   1_655 S
C64    H229    1.093   .     S
C64    H230    1.112   .     S
C64    H231    1.143   .     S
C65    H232    1.142   .     S
C65    H233    1.093   .     S
C65    H234    1.122   .     S
C66    H235    1.061   .     S
C66    H236    1.173   .     S
C66    H237    1.096   .     S
C68    H238    1.093   .     S
C68    H239    1.129   .     S
C68    H240    1.075   .     S
C69    H241    1.153   .     S
C69    H242    1.162   .     S
C69    H243    1.129   .     S
C71    H244    1.074   .     S
C71    H245    1.105   .     S
C71    H246    1.061   .     S
O72    Si7     1.590   1_556 S
C75    H247    1.075   .     S
C75    H248    1.126   .     S
C75    H249    1.129   .     S
C76    H250    1.130   .     S
C76    H251    1.086   .     S
C76    H252    1.101   .     S
C77    H253    1.088   .     S
C77    H254    1.080   .     S
C77    H255    1.111   .     S
C78    H256    1.127   .     S
C78    H257    1.095   .     S
C78    H258    1.097   .     S
C78    Si13    1.805   1_556 S
O81    Si2     1.568   1_565 S
C82    H259    1.075   .     S
C82    H260    1.107   .     S
C82    H261    1.110   .     S
C82    Si15    1.771   1_655 S
C83    H262    1.080   .     S
C83    H263    1.175   .     S
C83    H264    1.117   .     S
O85    Si2     1.633   1_565 S
C86    H265    1.106   .     S
C86    H266    1.089   .     S
C86    H267    1.102   .     S
O91    Si3     1.601   1_565 S
C92    H268    1.129   .     S
C92    H269    1.110   .     S
C92    H270    1.141   .     S
C93    H271    1.109   .     S
C93    H272    1.090   .     S
C93    H273    1.138   .     S
C94    H274    1.114   .     S
C94    H275    1.107   .     S
C94    H276    1.141   .     S
C95    H277    1.092   .     S
C95    H278    1.067   .     S
C95    H279    1.100   .     S
C97    H280    1.067   .     S
C97    H281    1.146   .     S
C97    H282    1.091   .     S
C98    H283    1.084   .     S
C98    H284    1.114   .     S
C98    H285    1.121   .     S
C99    H286    1.093   .     S
C99    H287    1.116   .     S
C99    H288    1.134   .     S
C103   H289    1.089   .     S
C103   H290    1.071   .     S
C103   H291    1.143   .     S
C104   H292    1.109   .     S
C104   H293    1.154   .     S
C104   H294    1.140   .     S
C105   H295    1.135   .     S
C105   H296    1.127   .     S
C105   H297    1.158   .     S
C106   H298    1.145   .     S
C106   H299    1.106   .     S
C106   H300    1.088   .     S
C107   H301    1.110   .     S
C107   H302    1.143   .     S
C107   H303    1.138   .     S
C108   H304    1.090   .     S
C108   H305    1.122   .     S
C108   H306    1.084   .     S
C109   H307    1.146   .     S
C109   H308    1.091   .     S
C109   H309    1.100   .     S
C110   H310    1.087   .     S
C110   H311    1.063   .     S
C110   H312    1.170   .     S
C112   H313    1.148   .     S
C112   H314    1.058   .     S
C112   H315    1.093   .     S
O114   Si25    1.610   1_556 S
O115   Si7     1.621   1_556 S
C116   H316    1.108   .     S
C116   H317    1.165   .     S
C116   H318    1.059   .     S
C118   H319    1.138   .     S
C118   H320    1.110   .     S
C118   H321    1.156   .     S
C120   H322    1.118   .     S
C120   H323    1.154   .     S
C120   H324    1.104   .     S
C121   H325    1.084   .     S
C121   H326    1.087   .     S
C121   H327    1.119   .     S
O124   Si20    1.610   1_565 S
C126   H328    1.143   .     S
C126   H329    1.092   .     S
C126   H330    1.092   .     S
C127   H331    1.133   .     S
C127   H332    1.105   .     S
C127   H333    1.098   .     S
C128   H334    1.097   .     S
C128   H335    1.014   .     S
C128   H336    1.100   .     S
O129   Si20    1.608   1_565 S
C130   H337    1.084   .     S
C130   H338    1.097   .     S
C130   H339    1.103   .     S
C132   H340    1.139   .     S
C132   H341    1.154   .     S
C132   H342    1.086   .     S
O134   Si30    1.568   1_556 S
O135   Si22    1.665   1_565 S
O136   Si13    1.613   1_556 S
O139   Si22    1.615   1_565 S
O140   Si1     1.565   1_655 S
C141   H343    1.122   .     S
C141   H344    1.106   .     S
C141   H345    1.091   .     S
C141   Si37    1.844   1_565 S
C142   H346    1.133   .     S
C142   H347    1.103   .     S
C142   H348    1.065   .     S
C142   Si37    1.861   1_565 S
C143   H349    1.112   .     S
C143   H350    1.056   .     S
C143   H351    1.081   .     S
C143   Si4     1.838   1_655 S
C144   H352    1.068   .     S
C144   H353    1.094   .     S
C144   H354    1.103   .     S
C144   Si38    1.849   1_556 S
C146   H355    1.151   .     S
C146   H356    1.165   .     S
C146   H357    1.062   .     S
C147   H358    1.048   .     S
C147   H359    1.099   .     S
C147   H360    1.069   .     S
C147   Si38    1.895   1_556 S
C149   H361    1.076   .     S
C149   H362    1.094   .     S
C149   H363    1.080   .     S
O151   Si1     1.623   1_655 S
C152   H364    1.065   .     S
C152   H365    1.192   .     S
C152   H366    1.076   .     S
C153   H367    1.147   .     S
C153   H368    1.102   .     S
C153   H369    1.098   .     S
O154   Si11    1.610   1_655 S
O154   Si41    1.614   1_556 S
C155   H370    1.125   .     S
C155   H371    1.065   .     S
C155   H372    1.083   .     S
O158   Si8     1.667   1_655 S
C159   H373    1.116   .     S
C159   H374    1.184   .     S
C159   H375    1.056   .     S
C160   H376    1.109   .     S
C160   H377    1.063   .     S
C160   H378    1.141   .     S
C161   H379    1.121   .     S
C161   H380    1.079   .     S
C161   H381    1.067   .     S
C162   H382    1.142   .     S
C162   H383    1.096   .     S
C162   H384    1.098   .     S
C162   Si6     1.859   1_655 S
C163   H385    1.090   .     S
C163   H386    1.075   .     S
C163   H387    1.180   .     S
C164   H388    1.105   .     S
C164   H389    1.116   .     S
C164   H390    1.062   .     S
C166   H391    1.157   .     S
C166   H392    1.141   .     S
C166   H393    1.055   .     S
C167   H394    1.097   .     S
C167   H395    1.043   .     S
C167   H396    1.066   .     S
C168   H397    1.092   .     S
C168   H398    1.141   .     S
C168   H399    1.141   .     S
O169   Si11    1.575   1_655 S
O171   Si41    1.601   1_556 S
C172   H400    1.128   .     S
C172   H401    1.112   .     S
C172   H402    1.109   .     S
C173   H403    1.089   .     S
C173   H404    1.096   .     S
C173   H405    1.125   .     S
C174   H406    1.133   .     S
C174   H407    1.141   .     S
C174   H408    1.104   .     S
C174   Si25    1.895   1_556 S
O175   Si8     1.557   1_655 S
C178   H409    1.072   .     S
C178   H410    1.115   .     S
C178   H411    1.149   .     S
C179   H412    1.152   .     S
C179   H413    1.129   .     S
C179   H414    1.077   .     S
C181   H415    1.097   .     S
C181   H416    1.091   .     S
C181   H417    1.134   .     S
C182   H418    1.092   .     S
C182   H419    1.109   .     S
C182   H420    1.095   .     S
C183   H421    1.073   .     S
C183   H422    1.162   .     S
C183   H423    1.079   .     S
C184   H424    1.071   .     S
C184   H425    1.118   .     S
C184   H426    1.104   .     S
C185   H427    1.052   .     S
C185   H428    1.034   .     S
C185   H429    1.079   .     S
C188   H430    1.121   .     S
C188   H431    1.165   .     S
C188   H432    1.058   .     S
C189   H433    1.078   .     S
C189   H434    1.157   .     S
C189   H435    1.138   .     S
C190   H436    1.122   .     S
C190   H437    1.107   .     S
C190   H438    1.090   .     S
C191   H439    1.097   .     S
C191   H440    1.176   .     S
C191   H441    1.076   .     S
C191   Si30    1.840   1_556 S
O192   Si15    1.633   1_655 S
C194   H442    1.097   .     S
C194   H443    1.050   .     S
C194   H444    1.147   .     S
C195   H445    1.088   .     S
C195   H446    1.112   .     S
C195   H447    1.120   .     S
