data_333-11-11-14-15-30-10
_audit_creation_date              2025-03-07
_audit_creation_method            'Materials Studio'
_symmetry_space_group_name_H-M    'P1'
_symmetry_Int_Tables_number       1
_symmetry_cell_setting            triclinic
loop_
_symmetry_equiv_pos_as_xyz
  x,y,z
_cell_length_a                    16.6055
_cell_length_b                    17.5565
_cell_length_c                    20.2754
_cell_angle_alpha                 93.9825
_cell_angle_beta                  83.2764
_cell_angle_gamma                 125.5154
loop_
_atom_site_label
_atom_site_type_symbol
_atom_site_fract_x
_atom_site_fract_y
_atom_site_fract_z
_atom_site_U_iso_or_equiv
_atom_site_adp_type
_atom_site_occupancy
Si1    Si    0.18536  -0.00848   0.15417   0.00000  Uiso   1.00
Si2    Si   -0.03312   0.14568   0.15358   0.00000  Uiso   1.00
Si3    Si    0.23066   0.20665  -0.00592   0.00000  Uiso   1.00
Si4    Si    0.16674  -0.00909   0.84389   0.00000  Uiso   1.00
Si5    Si    0.17706   0.30621   0.09839   0.00000  Uiso   1.00
Si6    Si   -0.00171   0.46913   0.50944   0.00000  Uiso   1.00
Si7    Si    0.25336   0.30842   0.43463   0.00000  Uiso   1.00
Si8    Si    0.17169   0.61368   0.41769   0.00000  Uiso   1.00
Si9    Si    0.30680   0.47738   0.69463   0.00000  Uiso   1.00
Si10   Si    0.35285   0.43584   0.55368   0.00000  Uiso   1.00
Si11   Si    0.10529   0.71505   0.16053   0.00000  Uiso   1.00
Si12   Si    0.13952   0.83934   0.04252   0.00000  Uiso   1.00
Si13   Si    0.07606   1.10083   0.67274   0.00000  Uiso   1.00
Si14   Si    0.00475   0.81746   0.93599   0.00000  Uiso   1.00
Si15   Si    0.11671   0.95643   0.69844   0.00000  Uiso   1.00
Si16   Si    0.50467   0.04776   0.07240   0.00000  Uiso   1.00
Si17   Si    0.36228   0.19002   0.16963   0.00000  Uiso   1.00
Si18   Si    0.53356   0.20138  -0.00651   0.00000  Uiso   1.00
Si19   Si    0.48286   0.16834   0.60483   0.00000  Uiso   1.00
Si20   Si    0.52651   0.20184   0.23822   0.00000  Uiso   1.00
Si21   Si    0.39047  -0.07333   0.80280   0.00000  Uiso   1.00
Si22   Si    0.37162   0.16775   0.90593   0.00000  Uiso   1.00
Si23   Si    0.51588   0.11497   0.73337   0.00000  Uiso   1.00
Si24   Si    0.51071   0.35060   0.07154   0.00000  Uiso   1.00
Si25   Si    0.51737   0.46985  -0.04069   0.00000  Uiso   1.00
Si26   Si    0.53972   0.44331   0.55638   0.00000  Uiso   1.00
Si27   Si    0.53853   0.28813   0.80137   0.00000  Uiso   1.00
Si28   Si    0.59169   0.43578   0.69736   0.00000  Uiso   1.00
Si29   Si    0.29773   0.68120  -0.04228   0.00000  Uiso   1.00
Si30   Si    0.70046   0.62661   0.49284   0.00000  Uiso   1.00
Si31   Si    0.12431   0.88606   0.55484   0.00000  Uiso   1.00
Si32   Si    0.26096   0.82214   0.92613   0.00000  Uiso   1.00
Si33   Si    0.29975   0.79737   0.68406   0.00000  Uiso   1.00
Si34   Si    0.81722  -0.01968   0.07133   0.00000  Uiso   1.00
Si35   Si    0.68157   0.18518   0.15666   0.00000  Uiso   1.00
Si36   Si    0.82429   0.13541   0.00352   0.00000  Uiso   1.00
Si37   Si    0.68660   0.10761   0.65593   0.00000  Uiso   1.00
Si38   Si    0.79445   0.14360   0.23452   0.00000  Uiso   1.00
Si39   Si    0.71378   0.19789   0.92924   0.00000  Uiso   1.00
Si40   Si    0.88697   0.30527   0.08152   0.00000  Uiso   1.00
Si41   Si    0.60734   0.52359   0.15885   0.00000  Uiso   1.00
Si42   Si    0.79122   0.52303   0.01012   0.00000  Uiso   1.00
Si43   Si    0.89051   0.34290   0.83201   0.00000  Uiso   1.00
Si44   Si    0.68475   0.46284   0.88926   0.00000  Uiso   1.00
Si45   Si    0.77885   0.67877   0.07315   0.00000  Uiso   1.00
Si46   Si    0.62124   0.83710   0.15244   0.00000  Uiso   1.00
Si47   Si    0.82987   0.83640  -0.01871   0.00000  Uiso   1.00
Si48   Si    0.71034   0.80206   0.53450   0.00000  Uiso   1.00
Si49   Si    0.52546   0.74415   0.28622   0.00000  Uiso   1.00
Si50   Si    0.86970   0.66004   0.84138   0.00000  Uiso   1.00
Si51   Si    0.70668   0.83791   0.88225   0.00000  Uiso   1.00
C52    C     0.21915   0.96087   0.22644   0.00000  Uiso   1.00
C53    C    -0.00115   0.11883   0.23272   0.00000  Uiso   1.00
C54    C     0.06626  -0.03183   0.18277   0.00000  Uiso   1.00
C55    C     0.14157   0.08844   0.02151   0.00000  Uiso   1.00
C56    C     0.18754   0.23750   0.93070   0.00000  Uiso   1.00
C57    C     0.09188   0.03860   0.85346   0.00000  Uiso   1.00
O58    O     0.05829   0.22463   0.10911   0.00000  Uiso   1.00
O59    O     0.23556   0.26703   0.05884   0.00000  Uiso   1.00
C60    C     0.20356   0.41177   0.05366   0.00000  Uiso   1.00
C61    C     0.22474   0.35266   0.17979   0.00000  Uiso   1.00
C62    C     0.04331   0.39010   0.50396   0.00000  Uiso   1.00
C63    C    -0.03105   0.49255   0.59917   0.00000  Uiso   1.00
C64    C     0.29758   0.39357   0.36787   0.00000  Uiso   1.00
C65    C     1.11547   0.20842   0.42509   0.00000  Uiso   1.00
C66    C     1.32849   0.25257   0.42889   0.00000  Uiso   1.00
C67    C     0.20851   0.73259   0.40106   0.00000  Uiso   1.00
O68    O     0.07952   0.56738   0.47505   0.00000  Uiso   1.00
C69    C     0.27737   0.61537   0.44716   0.00000  Uiso   1.00
C70    C     0.13171   0.55529   0.33531   0.00000  Uiso   1.00
C71    C     0.28737   0.40089   0.76008   0.00000  Uiso   1.00
C72    C     0.43221   0.59026   0.69778   0.00000  Uiso   1.00
C73    C     0.21368   0.50325   0.70486   0.00000  Uiso   1.00
O74    O     0.26892   0.36428   0.50551   0.00000  Uiso   1.00
O75    O     0.30449   0.43343   0.62422   0.00000  Uiso   1.00
C76    C     0.41370   0.55282   0.51811   0.00000  Uiso   1.00
C77    C     0.04366   0.73282   0.23856   0.00000  Uiso   1.00
C78    C     0.02870   0.59036   0.15162   0.00000  Uiso   1.00
C79    C     0.23325   0.74439   0.17248   0.00000  Uiso   1.00
O80    O     0.10510   0.75655   0.09349   0.00000  Uiso   1.00
O81    O     0.17802   0.93272   0.08751   0.00000  Uiso   1.00
C82    C    -0.05338   1.02458   0.64750   0.00000  Uiso   1.00
C83    C     1.15205   1.18812   0.60586   0.00000  Uiso   1.00
C84    C     1.06845   1.16486   0.74230   0.00000  Uiso   1.00
O85    O     0.04596   0.81466   1.00576   0.00000  Uiso   1.00
O86    O     0.09797   0.89270   0.88315   0.00000  Uiso   1.00
O87    O     0.12372   1.04834   0.68800   0.00000  Uiso   1.00
C88    C    -0.01446   0.86063   0.71495   0.00000  Uiso   1.00
O89    O     0.17450   0.96798   0.76305   0.00000  Uiso   1.00
C90    C     0.39633   0.96887   0.13394   0.00000  Uiso   1.00
O91    O     0.27202   0.09852   0.13889   0.00000  Uiso   1.00
C92    C     0.31381   0.21446   0.25291   0.00000  Uiso   1.00
O93    O     0.48555   0.11787   0.04347   0.00000  Uiso   1.00
C94    C     0.46161   0.10321   0.52177   0.00000  Uiso   1.00
C95    C     0.61529   0.27263   0.59962   0.00000  Uiso   1.00
C96    C     0.38734   0.19486   0.61826   0.00000  Uiso   1.00
O97    O     0.44338   0.17494   0.18834   0.00000  Uiso   1.00
C98    C     0.48126   0.10917   0.30320   0.00000  Uiso   1.00
C99    C     0.57181   0.31432   0.28148   0.00000  Uiso   1.00
O100   O     0.27762   0.06666   0.87456   0.00000  Uiso   1.00
O101   O     0.45780   0.16571   0.93894   0.00000  Uiso   1.00
O102   O     0.33026   0.21673   0.96192   0.00000  Uiso   1.00
O103   O     0.46546   0.10696   0.66900   0.00000  Uiso   1.00
O104   O     0.43864   0.03093   0.78188   0.00000  Uiso   1.00
O105   O     0.41372   0.27581   0.11936   0.00000  Uiso   1.00
O106   O     0.54975   0.29252   0.03135   0.00000  Uiso   1.00
O107   O     0.48412   0.39542   0.01795   0.00000  Uiso   1.00
C108   C     0.54605   0.57423  -0.00196   0.00000  Uiso   1.00
C109   C     0.42332   0.44021   0.90481   0.00000  Uiso   1.00
C110   C    -0.10333   0.42042   0.45661   0.00000  Uiso   1.00
C111   C     0.56421   0.37639   0.49275   0.00000  Uiso   1.00
O112   O     0.42914   0.40847   0.55066   0.00000  Uiso   1.00
O113   O     0.43407   0.23717   0.84709   0.00000  Uiso   1.00
O114   O     0.55362   0.20909   0.77381   0.00000  Uiso   1.00
O115   O     0.53768   0.41915   0.63172   0.00000  Uiso   1.00
O116   O     0.53496   0.33813   0.73875   0.00000  Uiso   1.00
C117   C     0.57651   0.51517   0.75618   0.00000  Uiso   1.00
C118   C     0.72417   0.48336   0.68729   0.00000  Uiso   1.00
C119   C     0.17089   0.58848  -0.00392   0.00000  Uiso   1.00
C120   C     0.38855   0.70677   0.01111   0.00000  Uiso   1.00
C121   C     0.50236   0.97001   0.00405   0.00000  Uiso   1.00
O122   O     0.61406   0.54946   0.54099   0.00000  Uiso   1.00
C123   C     0.82245   0.66528   0.51971   0.00000  Uiso   1.00
C124   C     0.69932   0.58664   0.40596   0.00000  Uiso   1.00
C125   C     0.02999   0.90235   0.53321   0.00000  Uiso   1.00
C126   C     0.22771   0.95150   0.49079   0.00000  Uiso   1.00
O127   O     0.15492   0.92742   0.63015   0.00000  Uiso   1.00
C128   C     0.15990   0.73099   0.87552   0.00000  Uiso   1.00
O129   O     0.30465   0.77466   0.95203   0.00000  Uiso   1.00
O130   O     0.33740   0.90333   0.87811   0.00000  Uiso   1.00
O131   O     0.22640   0.85789   0.99073   0.00000  Uiso   1.00
C132   C     0.06915   0.75598   0.54432   0.00000  Uiso   1.00
C133   C     0.33345   0.88161   0.61342   0.00000  Uiso   1.00
C134   C     0.17103   0.68889   0.67893   0.00000  Uiso   1.00
O135   O     0.31809   0.84921   0.75428   0.00000  Uiso   1.00
O136   O     0.90776   0.05059   0.11123   0.00000  Uiso   1.00
O137   O     0.60989   0.10445   0.10530   0.00000  Uiso   1.00
O138   O     0.62226   0.22362   0.19715   0.00000  Uiso   1.00
C139   C     0.90397   0.14561   0.92685   0.00000  Uiso   1.00
O140   O     0.78368   0.03892   0.03684   0.00000  Uiso   1.00
C141   C     0.63833   0.05469   0.57510   0.00000  Uiso   1.00
C142   C     0.72061   0.03597   0.68824   0.00000  Uiso   1.00
C143   C     0.79648   0.22348   0.63479   0.00000  Uiso   1.00
O144   O     0.60956   0.10919   0.71176   0.00000  Uiso   1.00
O145   O     0.88462   0.16590   0.17848   0.00000  Uiso   1.00
O146   O     0.70694   0.13569   0.20480   0.00000  Uiso   1.00
C147   C     0.74838   0.03374   0.27680   0.00000  Uiso   1.00
C148   C     0.83914   0.23215   0.30500   0.00000  Uiso   1.00
C149   C     0.48793  -0.09292   0.80022   0.00000  Uiso   1.00
C150   C     0.64422   0.11545   0.86362   0.00000  Uiso   1.00
O151   O     0.73608   0.14242   0.97740   0.00000  Uiso   1.00
O152   O     0.64480   0.23060   0.96471   0.00000  Uiso   1.00
O153   O     0.77767   0.26770   0.11285   0.00000  Uiso   1.00
O154   O     0.88523   0.22071   0.05192   0.00000  Uiso   1.00
C155   C     0.97332   0.36839   0.14612   0.00000  Uiso   1.00
O156   O     0.58622   0.43258   0.11727   0.00000  Uiso   1.00
C157   C     0.68233   0.55157   0.23674   0.00000  Uiso   1.00
C158   C     0.49057   0.50944   0.19825   0.00000  Uiso   1.00
C159   C     0.91547   0.57102   0.97610   0.00000  Uiso   1.00
C160   C     0.93119   0.38567   0.01219   0.00000  Uiso   1.00
C161   C     0.77164   0.45081   0.08164   0.00000  Uiso   1.00
O162   O     0.81549   0.28704   0.89652   0.00000  Uiso   1.00
C163   C     0.90544   0.26495   0.77082   0.00000  Uiso   1.00
C164   C     0.84582   0.40002   0.78801   0.00000  Uiso   1.00
C165   C     1.01406   0.44748   0.84798   0.00000  Uiso   1.00
O166   O     0.63164   0.36844   0.84128   0.00000  Uiso   1.00
O167   O     0.72542   0.45316   0.95289   0.00000  Uiso   1.00
O168   O     0.61197   0.49358   0.91338   0.00000  Uiso   1.00
O169   O     0.67617   0.61667   0.11714   0.00000  Uiso   1.00
O170   O     0.78554   0.61177   0.02281   0.00000  Uiso   1.00
C171   C     0.87698   0.72961   0.12893   0.00000  Uiso   1.00
C172   C     0.56815   0.73654   0.09580   0.00000  Uiso   1.00
O173   O     0.73715   0.90435   0.12375   0.00000  Uiso   1.00
C174   C     0.56408   0.90274   0.15217   0.00000  Uiso   1.00
O175   O     0.93479   0.85426   0.95096   0.00000  Uiso   1.00
O176   O     0.77744   0.75655   0.03632   0.00000  Uiso   1.00
O177   O     0.85311   0.93301   0.01347   0.00000  Uiso   1.00
O178   O     0.68676   0.71035   0.49413   0.00000  Uiso   1.00
C179   C     0.82570   0.90672   0.48657   0.00000  Uiso   1.00
C180   C     0.61418   0.82008   0.52770   0.00000  Uiso   1.00
C181   C     0.73318   0.79402   0.62566   0.00000  Uiso   1.00
C182   C     0.37933   0.75935   0.66700   0.00000  Uiso   1.00
C183   C     0.39701   0.65302   0.25760   0.00000  Uiso   1.00
O184   O     0.60313   0.80305   0.22569   0.00000  Uiso   1.00
C185   C     0.50141   0.81795   0.33686   0.00000  Uiso   1.00
C186   C     0.55706   0.68337   0.33935   0.00000  Uiso   1.00
O187   O     0.78298   0.54951   0.84988   0.00000  Uiso   1.00
C188   C     0.95883   0.66903   0.77157   0.00000  Uiso   1.00
C189   C     0.80892   0.71396   0.82570   0.00000  Uiso   1.00
O190   O     0.93234   0.71397   0.90464   0.00000  Uiso   1.00
C191   C     0.62073   0.74041   0.82833   0.00000  Uiso   1.00
O192   O     0.74988   0.80115   0.92832   0.00000  Uiso   1.00
C193   C     0.81052   0.92761   0.82473   0.00000  Uiso   1.00
C194   C     0.63974   0.88653   0.92901   0.00000  Uiso   1.00
C195   C     0.31587   0.63500   0.87858   0.00000  Uiso   1.00
H196   H     0.16119   0.93613   0.26974   0.00000  Uiso   1.00
H197   H     0.27979   1.02073   0.25210   0.00000  Uiso   1.00
H198   H     0.22796   0.90383   0.20980   0.00000  Uiso   1.00
H199   H    -0.05625   0.04496   0.24860   0.00000  Uiso   1.00
H200   H    -0.00465   0.16775   0.27037   0.00000  Uiso   1.00
H201   H     0.07546   0.14758   0.22274   0.00000  Uiso   1.00
H202   H     0.03573  -0.01865   0.14419   0.00000  Uiso   1.00
H203   H     0.06159   0.00078   0.23172   0.00000  Uiso   1.00
H204   H     0.01750  -0.10617   0.19031   0.00000  Uiso   1.00
H205   H     0.14801   0.08796   0.07417   0.00000  Uiso   1.00
H206   H     0.15473   0.03673  -0.00444   0.00000  Uiso   1.00
H207   H     0.06852   0.07237   0.01643   0.00000  Uiso   1.00
H208   H     0.10935   0.18899   0.92975   0.00000  Uiso   1.00
H209   H     0.22467   0.23934   0.88230   0.00000  Uiso   1.00
H210   H     0.19923   0.30901   0.93875   0.00000  Uiso   1.00
H211   H     0.14045   0.10666   0.82629   0.00000  Uiso   1.00
H212   H     0.06194   0.04064   0.90655   0.00000  Uiso   1.00
H213   H     0.03450  -0.00297   0.82350   0.00000  Uiso   1.00
H214   H     0.27763   0.45557   0.03097   0.00000  Uiso   1.00
H215   H     0.19195   0.45562   0.09171   0.00000  Uiso   1.00
H216   H     0.14432   0.38041   0.01687   0.00000  Uiso   1.00
H217   H     0.16154   0.31453   0.22179   0.00000  Uiso   1.00
H218   H     0.26823   0.43158   0.18172   0.00000  Uiso   1.00
H219   H     0.27954   0.33517   0.18441   0.00000  Uiso   1.00
H220   H     0.09666   0.40939   0.53826   0.00000  Uiso   1.00
H221   H     0.06854   0.38907   0.45105   0.00000  Uiso   1.00
H222   H    -0.02552   0.32295   0.52063   0.00000  Uiso   1.00
H223   H    -0.10936   0.43904   0.61377   0.00000  Uiso   1.00
H224   H    -0.00705   0.56309   0.61171   0.00000  Uiso   1.00
H225   H     0.01831   0.48313   0.62477   0.00000  Uiso   1.00
H226   H     0.26975   0.34911   0.32214   0.00000  Uiso   1.00
H227   H     0.37946   0.43800   0.36441   0.00000  Uiso   1.00
H228   H     0.25269   0.42341   0.37061   0.00000  Uiso   1.00
H229   H     1.10285   0.14902   0.45165   0.00000  Uiso   1.00
H230   H     1.10907   0.19315   0.37060   0.00000  Uiso   1.00
H231   H     1.06433   0.22525   0.44596   0.00000  Uiso   1.00
H232   H     1.29040   0.18515   0.40275   0.00000  Uiso   1.00
H233   H     1.32486   0.23588   0.48295   0.00000  Uiso   1.00
H234   H     1.40679   0.31395   0.40486   0.00000  Uiso   1.00
H235   H     0.24357   0.77643   0.44448   0.00000  Uiso   1.00
H236   H     0.14236   0.72875   0.38998   0.00000  Uiso   1.00
H237   H     0.26181   0.76779   0.35787   0.00000  Uiso   1.00
H238   H     0.32053   0.67935   0.48205   0.00000  Uiso   1.00
H239   H     0.33270   0.62179   0.40904   0.00000  Uiso   1.00
H240   H     0.23883   0.55213   0.47675   0.00000  Uiso   1.00
H241   H     0.19483   0.57623   0.29826   0.00000  Uiso   1.00
H242   H     0.08126   0.57409   0.32209   0.00000  Uiso   1.00
H243   H     0.07932   0.47810   0.34299   0.00000  Uiso   1.00
H244   H     0.31095   0.43090   0.81009   0.00000  Uiso   1.00
H245   H     0.32720   0.36886   0.74360   0.00000  Uiso   1.00
H246   H     0.21026   0.35235   0.77163   0.00000  Uiso   1.00
H247   H     0.45086   0.64091   0.65746   0.00000  Uiso   1.00
H248   H     0.48759   0.57708   0.68669   0.00000  Uiso   1.00
H249   H     0.43219   0.61889   0.74799   0.00000  Uiso   1.00
H250   H     0.14047   0.43675   0.71712   0.00000  Uiso   1.00
H251   H     0.21593   0.52611   0.65691   0.00000  Uiso   1.00
H252   H     0.22437   0.55239   0.74092   0.00000  Uiso   1.00
H253   H     0.48499   0.60809   0.53918   0.00000  Uiso   1.00
H254   H     0.36573   0.57668   0.52504   0.00000  Uiso   1.00
H255   H     0.43180   0.54966   0.46340   0.00000  Uiso   1.00
H256   H     0.10154   0.78394   0.26967   0.00000  Uiso   1.00
H257   H    -0.01635   0.66690   0.26205   0.00000  Uiso   1.00
H258   H     0.00714   0.76524   0.22543   0.00000  Uiso   1.00
H259   H     0.01666   0.54914   0.19634   0.00000  Uiso   1.00
H260   H     0.06316   0.56523   0.11535   0.00000  Uiso   1.00
H261   H    -0.04668   0.56450   0.13540   0.00000  Uiso   1.00
H262   H     0.26826   0.80307   0.20918   0.00000  Uiso   1.00
H263   H     0.28188   0.75909   0.12412   0.00000  Uiso   1.00
H264   H     0.22275   0.68403   0.19414   0.00000  Uiso   1.00
H265   H    -0.11149   0.98044   0.68838   0.00000  Uiso   1.00
H266   H    -0.05482   0.98282   0.60445   0.00000  Uiso   1.00
H267   H    -0.07644   1.06910   0.63466   0.00000  Uiso   1.00
H268   H     1.17261   1.16005   0.56218   0.00000  Uiso   1.00
H269   H     1.22161   1.24686   0.62603   0.00000  Uiso   1.00
H270   H     1.11040   1.22064   0.59194   0.00000  Uiso   1.00
H271   H     0.99840   1.11349   0.77104   0.00000  Uiso   1.00
H272   H     1.06002   1.21829   0.72423   0.00000  Uiso   1.00
H273   H     1.14046   1.20530   0.76456   0.00000  Uiso   1.00
H274   H    -0.01999   0.85378   0.76972   0.00000  Uiso   1.00
H275   H    -0.02563   0.80042   0.68767   0.00000  Uiso   1.00
H276   H    -0.07930   0.86575   0.70886   0.00000  Uiso   1.00
H277   H     0.33072   0.92319   0.10718   0.00000  Uiso   1.00
H278   H     0.38849   1.00927   0.16829   0.00000  Uiso   1.00
H279   H     0.41625   0.92677   0.15057   0.00000  Uiso   1.00
H280   H     0.30274   0.16219   0.28769   0.00000  Uiso   1.00
H281   H     0.24303   0.20178   0.24509   0.00000  Uiso   1.00
H282   H     0.36601   0.28401   0.26675   0.00000  Uiso   1.00
H283   H     0.42999   0.03014   0.53560   0.00000  Uiso   1.00
H284   H     0.53071   0.13539   0.48589   0.00000  Uiso   1.00
H285   H     0.41302   0.11420   0.49533   0.00000  Uiso   1.00
H286   H     0.62207   0.33145   0.58666   0.00000  Uiso   1.00
H287   H     0.65884   0.25888   0.56183   0.00000  Uiso   1.00
H288   H     0.65249   0.28541   0.64657   0.00000  Uiso   1.00
H289   H     0.39863   0.24383   0.65978   0.00000  Uiso   1.00
H290   H     0.31785   0.12633   0.62688   0.00000  Uiso   1.00
H291   H     0.38430   0.22674   0.57753   0.00000  Uiso   1.00
H292   H     0.54554   0.13975   0.33781   0.00000  Uiso   1.00
H293   H     0.46702   0.04340   0.27468   0.00000  Uiso   1.00
H294   H     0.40819   0.08415   0.33122   0.00000  Uiso   1.00
H295   H     0.60766   0.37205   0.24186   0.00000  Uiso   1.00
H296   H     0.63239   0.32574   0.31039   0.00000  Uiso   1.00
H297   H     0.51890   0.31976   0.31696   0.00000  Uiso   1.00
H298   H     0.53055   0.56152   0.05201   0.00000  Uiso   1.00
H299   H     0.50998   0.60543  -0.01999   0.00000  Uiso   1.00
H300   H     0.62373   0.62924  -0.01224   0.00000  Uiso   1.00
H301   H     0.45496   0.50458   0.87432   0.00000  Uiso   1.00
H302   H     0.35787   0.43118   0.93657   0.00000  Uiso   1.00
H303   H     0.40152   0.37881   0.87024   0.00000  Uiso   1.00
H304   H    -0.11494   0.47440   0.44856   0.00000  Uiso   1.00
H305   H    -0.16406   0.35297   0.48197   0.00000  Uiso   1.00
H306   H    -0.07514   0.40927   0.40924   0.00000  Uiso   1.00
H307   H     0.55881   0.38845   0.43958   0.00000  Uiso   1.00
H308   H     0.51666   0.29680   0.49491   0.00000  Uiso   1.00
H309   H     0.64158   0.39995   0.49792   0.00000  Uiso   1.00
H310   H     0.49604   0.48013   0.76485   0.00000  Uiso   1.00
H311   H     0.61037   0.58289   0.73078   0.00000  Uiso   1.00
H312   H     0.61265   0.51950   0.79915   0.00000  Uiso   1.00
H313   H     0.74066   0.45966   0.63821   0.00000  Uiso   1.00
H314   H     0.74782   0.46938   0.72946   0.00000  Uiso   1.00
H315   H     0.76323   0.55938   0.68707   0.00000  Uiso   1.00
H316   H     0.13139   0.53282  -0.04141   0.00000  Uiso   1.00
H317   H     0.12639   0.61589   0.00238   0.00000  Uiso   1.00
H318   H     0.18013   0.56729   0.04481   0.00000  Uiso   1.00
H319   H     0.39498   0.64539   0.00864   0.00000  Uiso   1.00
H320   H     0.36421   0.70913   0.06580   0.00000  Uiso   1.00
H321   H     0.45560   0.76942  -0.00847   0.00000  Uiso   1.00
H322   H     0.44850   0.95727  -0.03520   0.00000  Uiso   1.00
H323   H     0.48210   0.90178   0.02255   0.00000  Uiso   1.00
H324   H     0.57366   1.00432  -0.02854   0.00000  Uiso   1.00
H325   H     0.87371   0.72143   0.48478   0.00000  Uiso   1.00
H326   H     0.82927   0.60781   0.51435   0.00000  Uiso   1.00
H327   H     0.83276   0.68857   0.56912   0.00000  Uiso   1.00
H328   H     0.71088   0.53121   0.40149   0.00000  Uiso   1.00
H329   H     0.76330   0.63959   0.37227   0.00000  Uiso   1.00
H330   H     0.62566   0.55923   0.39034   0.00000  Uiso   1.00
H331   H    -0.03342   0.86938   0.57435   0.00000  Uiso   1.00
H332   H     0.00405   0.86184   0.48636   0.00000  Uiso   1.00
H333   H     0.06218   0.97995   0.52694   0.00000  Uiso   1.00
H334   H     0.20343   0.92585   0.44040   0.00000  Uiso   1.00
H335   H     0.28962   0.94256   0.49449   0.00000  Uiso   1.00
H336   H     0.25549   1.02382   0.49229   0.00000  Uiso   1.00
H337   H     0.08871   0.67988   0.90742   0.00000  Uiso   1.00
H338   H     0.18123   0.69537   0.83735   0.00000  Uiso   1.00
H339   H     0.15127   0.77467   0.84454   0.00000  Uiso   1.00
H340   H     0.04111   0.73543   0.49459   0.00000  Uiso   1.00
H341   H     0.00830   0.72150   0.58446   0.00000  Uiso   1.00
H342   H     0.12839   0.74410   0.54585   0.00000  Uiso   1.00
H343   H     0.30673   0.83368   0.56911   0.00000  Uiso   1.00
H344   H     0.41912   0.93502   0.60516   0.00000  Uiso   1.00
H345   H     0.29488   0.91836   0.62533   0.00000  Uiso   1.00
H346   H     0.17117   0.65053   0.63087   0.00000  Uiso   1.00
H347   H     0.11554   0.70572   0.67448   0.00000  Uiso   1.00
H348   H     0.14394   0.64417   0.72169   0.00000  Uiso   1.00
H349   H     0.96843   0.22431   0.92745   0.00000  Uiso   1.00
H350   H     0.86565   0.12724   0.88471   0.00000  Uiso   1.00
H351   H     0.93523   0.10459   0.93314   0.00000  Uiso   1.00
H352   H     0.68818   0.04414   0.54588   0.00000  Uiso   1.00
H353   H     0.61861   0.09025   0.54465   0.00000  Uiso   1.00
H354   H     0.56895  -0.01408   0.59066   0.00000  Uiso   1.00
H355   H     0.66036  -0.03568   0.68278   0.00000  Uiso   1.00
H356   H     0.74008   0.05328   0.73859   0.00000  Uiso   1.00
H357   H     0.78157   0.04346   0.65727   0.00000  Uiso   1.00
H358   H     0.86287   0.22296   0.63448   0.00000  Uiso   1.00
H359   H     0.81402   0.27939   0.67317   0.00000  Uiso   1.00
H360   H     0.80755   0.25273   0.58507   0.00000  Uiso   1.00
H361   H     0.77663   0.04889   0.32689   0.00000  Uiso   1.00
H362   H     0.77021  -0.00633   0.24484   0.00000  Uiso   1.00
H363   H     0.66752  -0.01269   0.28191   0.00000  Uiso   1.00
H364   H     0.77946   0.23481   0.33298   0.00000  Uiso   1.00
H365   H     0.89638   0.30212   0.28487   0.00000  Uiso   1.00
H366   H     0.87306   0.21712   0.34079   0.00000  Uiso   1.00
H367   H     0.54968  -0.04742   0.76355   0.00000  Uiso   1.00
H368   H     0.45422  -0.16703   0.78603   0.00000  Uiso   1.00
H369   H     0.51440  -0.07913   0.85066   0.00000  Uiso   1.00
H370   H     0.65661   0.06333   0.86595   0.00000  Uiso   1.00
H371   H     0.67467   0.14053   0.81278   0.00000  Uiso   1.00
H372   H     0.56235   0.08697   0.86940   0.00000  Uiso   1.00
H373   H     0.94935   0.39814   0.18509   0.00000  Uiso   1.00
H374   H     1.04625   0.42926   0.12602   0.00000  Uiso   1.00
H375   H     0.98951   0.32418   0.17082   0.00000  Uiso   1.00
H376   H     0.73971   0.53609   0.22973   0.00000  Uiso   1.00
H377   H     0.63287   0.52109   0.28184   0.00000  Uiso   1.00
H378   H     0.72937   0.62737   0.24805   0.00000  Uiso   1.00
H379   H     0.45641   0.44747   0.22688   0.00000  Uiso   1.00
H380   H     0.44045   0.49267   0.16132   0.00000  Uiso   1.00
H381   H     0.51077   0.57775   0.22046   0.00000  Uiso   1.00
H382   H     0.97077   0.64263   0.99106   0.00000  Uiso   1.00
H383   H     0.92669   0.56521   0.92010   0.00000  Uiso   1.00
H384   H     0.93701   0.53080   0.99799   0.00000  Uiso   1.00
H385   H     0.87172   0.38228  -0.00710   0.00000  Uiso   1.00
H386   H     0.97980   0.37427  -0.02275   0.00000  Uiso   1.00
H387   H     0.98423   0.45430   0.03650   0.00000  Uiso   1.00
H388   H     0.70970   0.37449   0.07107   0.00000  Uiso   1.00
H389   H     0.75931   0.47571   0.12961   0.00000  Uiso   1.00
H390   H     0.83135   0.44481   0.08633   0.00000  Uiso   1.00
H391   H     0.94670   0.23947   0.78568   0.00000  Uiso   1.00
H392   H     0.95403   0.31195   0.72719   0.00000  Uiso   1.00
H393   H     0.82866   0.20601   0.75937   0.00000  Uiso   1.00
H394   H     0.76776   0.35137   0.77919   0.00000  Uiso   1.00
H395   H     0.89392   0.42800   0.74043   0.00000  Uiso   1.00
H396   H     0.86140   0.46632   0.81531   0.00000  Uiso   1.00
H397   H     1.04672   0.49673   0.80475   0.00000  Uiso   1.00
H398   H     1.06337   0.42524   0.84821   0.00000  Uiso   1.00
H399   H     1.00894   0.48364   0.89493   0.00000  Uiso   1.00
H400   H     0.94289   0.79590   0.11243   0.00000  Uiso   1.00
H401   H     0.89738   0.68149   0.13849   0.00000  Uiso   1.00
H402   H     0.84345   0.73930   0.17361   0.00000  Uiso   1.00
H403   H     0.59499   0.76117   0.04377   0.00000  Uiso   1.00
H404   H     0.48268   0.68382   0.10180   0.00000  Uiso   1.00
H405   H     0.59743   0.69748   0.10677   0.00000  Uiso   1.00
H406   H     0.49209   0.84946   0.13069   0.00000  Uiso   1.00
H407   H     0.61581   0.96625   0.12383   0.00000  Uiso   1.00
H408   H     0.54289   0.91842   0.20236   0.00000  Uiso   1.00
H409   H     0.81018   0.91578   0.43661   0.00000  Uiso   1.00
H410   H     0.88373   0.89231   0.47955   0.00000  Uiso   1.00
H411   H     0.85881   0.97501   0.51740   0.00000  Uiso   1.00
H412   H     0.63546   0.88659   0.54845   0.00000  Uiso   1.00
H413   H     0.54074   0.76012   0.54951   0.00000  Uiso   1.00
H414   H     0.61168   0.82103   0.47235   0.00000  Uiso   1.00
H415   H     0.67561   0.71911   0.64477   0.00000  Uiso   1.00
H416   H     0.71996   0.83823   0.66177   0.00000  Uiso   1.00
H417   H     0.80802   0.80860   0.62456   0.00000  Uiso   1.00
H418   H     0.36704   0.72910   0.61747   0.00000  Uiso   1.00
H419   H     0.36083   0.71048   0.70624   0.00000  Uiso   1.00
H420   H     0.45437   0.82898   0.66927   0.00000  Uiso   1.00
H421   H     0.36509   0.68804   0.24904   0.00000  Uiso   1.00
H422   H     0.35067   0.59418   0.29385   0.00000  Uiso   1.00
H423   H     0.40951   0.62898   0.21199   0.00000  Uiso   1.00
H424   H     0.57576   0.88175   0.35103   0.00000  Uiso   1.00
H425   H     0.45304   0.77863   0.38316   0.00000  Uiso   1.00
H426   H     0.46139   0.83884   0.30524   0.00000  Uiso   1.00
H427   H     0.51952   0.67447   0.38816   0.00000  Uiso   1.00
H428   H     0.63494   0.71777   0.34153   0.00000  Uiso   1.00
H429   H     0.52633   0.61232   0.32607   0.00000  Uiso   1.00
H430   H     0.92277   0.63936   0.72384   0.00000  Uiso   1.00
H431   H     0.97813   0.62079   0.78297   0.00000  Uiso   1.00
H432   H     1.02610   0.74425   0.76727   0.00000  Uiso   1.00
H433   H     0.85241   0.78590   0.84150   0.00000  Uiso   1.00
H434   H     0.73163   0.67837   0.84930   0.00000  Uiso   1.00
H435   H     0.80704   0.70556   0.77135   0.00000  Uiso   1.00
H436   H     0.57524   0.67819   0.85972   0.00000  Uiso   1.00
H437   H     0.66221   0.73175   0.78586   0.00000  Uiso   1.00
H438   H     0.57233   0.75919   0.81023   0.00000  Uiso   1.00
H439   H     0.77724   0.94790   0.79091   0.00000  Uiso   1.00
H440   H     0.84936   0.90216   0.79475   0.00000  Uiso   1.00
H441   H     0.86979   0.98793   0.85146   0.00000  Uiso   1.00
H442   H     0.63257   0.88063   0.98242   0.00000  Uiso   1.00
H443   H     0.56581   0.85342   0.90922   0.00000  Uiso   1.00
H444   H     0.68466   0.96052   0.91515   0.00000  Uiso   1.00
H445   H     0.27642   0.64157   0.84055   0.00000  Uiso   1.00
H446   H     0.28670   0.55946   0.87967   0.00000  Uiso   1.00
H447   H     0.39458   0.67795   0.86085   0.00000  Uiso   1.00
loop_
_geom_bond_atom_site_label_1
_geom_bond_atom_site_label_2
_geom_bond_distance
_geom_bond_site_symmetry_2
_ccdc_geom_bond_type
Si1    C54     1.799   .     S
Si1    O91     1.591   .     S
Si1    C52     1.845   1_545 S
Si1    O81     1.614   1_545 S
Si2    C53     1.917   .     S
Si2    O58     1.564   .     S
Si2    O136    1.607   1_455 S
Si2    O145    1.620   1_455 S
Si3    C55     1.790   .     S
Si3    O59     1.608   .     S
Si3    C56     1.795   1_554 S
Si3    O102    1.617   1_554 S
Si4    C57     1.848   .     S
Si4    O100    1.689   .     S
Si4    O86     1.613   1_545 S
Si4    O89     1.669   1_545 S
Si5    O58     1.628   .     S
Si5    O59     1.605   .     S
Si5    C60     1.909   .     S
Si5    C61     1.840   .     S
Si6    C62     1.913   .     S
Si6    C63     1.907   .     S
Si6    O68     1.589   .     S
Si6    C110    1.829   .     S
Si7    C64     1.838   .     S
Si7    O74     1.640   .     S
Si7    C65     1.936   1_455 S
Si7    C66     1.976   1_455 S
Si8    C67     1.847   .     S
Si8    O68     1.620   .     S
Si8    C69     1.903   .     S
Si8    C70     1.874   .     S
Si9    C71     1.820   .     S
Si9    C72     1.867   .     S
Si9    C73     1.835   .     S
Si9    O75     1.569   .     S
Si10   O74     1.609   .     S
Si10   O75     1.547   .     S
Si10   C76     1.839   .     S
Si10   O112    1.589   .     S
Si11   C77     1.890   .     S
Si11   C78     1.791   .     S
Si11   C79     1.916   .     S
Si11   O80     1.587   .     S
Si12   O80     1.616   .     S
Si12   O81     1.625   .     S
Si12   O85     1.613   1_554 S
Si12   O131    1.561   1_554 S
Si13   C82     1.869   .     S
Si13   O87     1.586   .     S
Si13   C83     1.850   1_455 S
Si13   C84     1.781   1_455 S
Si14   O85     1.657   .     S
Si14   O86     1.650   .     S
Si14   O175    1.619   1_455 S
Si14   O190    1.622   1_455 S
Si15   O87     1.577   .     S
Si15   C88     1.827   .     S
Si15   O89     1.646   .     S
Si15   O127    1.628   .     S
Si16   O93     1.599   .     S
Si16   O137    1.627   .     S
Si16   C90     1.879   1_545 S
Si16   C121    1.864   1_545 S
Si17   O91     1.580   .     S
Si17   C92     1.914   .     S
Si17   O97     1.605   .     S
Si17   O105    1.598   .     S
Si18   O93     1.572   .     S
Si18   O106    1.612   .     S
Si18   O101    1.585   1_554 S
Si18   O152    1.644   1_554 S
Si19   C94     1.916   .     S
Si19   C95     1.869   .     S
Si19   C96     1.883   .     S
Si19   O103    1.638   .     S
Si20   O97     1.629   .     S
Si20   C98     1.896   .     S
Si20   C99     1.850   .     S
Si20   O138    1.548   .     S
Si21   O104    1.580   .     S
Si21   C149    1.834   .     S
Si21   O130    1.621   1_545 S
Si21   O135    1.566   1_545 S
Si22   O100    1.688   .     S
Si22   O101    1.669   .     S
Si22   O102    1.693   .     S
Si22   O113    1.558   .     S
Si23   O103    1.587   .     S
Si23   O104    1.580   .     S
Si23   O114    1.589   .     S
Si23   O144    1.625   .     S
Si24   O105    1.616   .     S
Si24   O106    1.629   .     S
Si24   O107    1.622   .     S
Si24   O156    1.579   .     S
Si25   O107    1.628   .     S
Si25   C108    1.754   .     S
Si25   C109    1.820   1_554 S
Si25   O168    1.568   1_554 S
Si26   C111    1.853   .     S
Si26   O112    1.580   .     S
Si26   O115    1.605   .     S
Si26   O122    1.553   .     S
Si27   O113    1.614   .     S
Si27   O114    1.601   .     S
Si27   O116    1.618   .     S
Si27   O166    1.623   .     S
Si28   O115    1.607   .     S
Si28   O116    1.634   .     S
Si28   C117    1.880   .     S
Si28   C118    1.834   .     S
Si29   C119    1.871   .     S
Si29   C120    1.782   .     S
Si29   O129    1.589   1_554 S
Si29   C195    1.820   1_554 S
Si30   O122    1.563   .     S
Si30   C123    1.863   .     S
Si30   C124    1.848   .     S
Si30   O178    1.611   .     S
Si31   C125    1.851   .     S
Si31   C126    1.830   .     S
Si31   O127    1.648   .     S
Si31   C132    1.910   .     S
Si32   C128    1.867   .     S
Si32   O129    1.533   .     S
Si32   O130    1.547   .     S
Si32   O131    1.602   .     S
Si33   C133    1.923   .     S
Si33   C134    1.871   .     S
Si33   O135    1.596   .     S
Si33   C182    1.788   .     S
Si34   O136    1.558   .     S
Si34   O140    1.648   .     S
Si34   O173    1.575   1_545 S
Si34   O177    1.642   1_545 S
Si35   O137    1.623   .     S
Si35   O138    1.614   .     S
Si35   O146    1.589   .     S
Si35   O153    1.611   .     S
Si36   O140    1.583   .     S
Si36   O154    1.580   .     S
Si36   C139    1.866   1_554 S
Si36   O151    1.685   1_554 S
Si37   C141    1.850   .     S
Si37   C142    1.832   .     S
Si37   C143    1.810   .     S
Si37   O144    1.618   .     S
Si38   O145    1.634   .     S
Si38   O146    1.566   .     S
Si38   C147    1.844   .     S
Si38   C148    1.900   .     S
Si39   C150    1.830   .     S
Si39   O151    1.635   .     S
Si39   O152    1.635   .     S
Si39   O162    1.598   .     S
Si40   O153    1.591   .     S
Si40   O154    1.548   .     S
Si40   C155    1.842   .     S
Si40   C160    1.827   .     S
Si41   O156    1.618   .     S
Si41   C157    1.982   .     S
Si41   C158    1.888   .     S
Si41   O169    1.577   .     S
Si42   C161    1.866   .     S
Si42   O170    1.616   .     S
Si42   C159    1.781   1_554 S
Si42   O167    1.608   1_554 S
Si43   O162    1.613   .     S
Si43   C163    1.887   .     S
Si43   C164    1.870   .     S
Si43   C165    1.839   .     S
Si44   O166    1.658   .     S
Si44   O167    1.587   .     S
Si44   O168    1.604   .     S
Si44   O187    1.610   .     S
Si45   O169    1.585   .     S
Si45   O170    1.548   .     S
Si45   C171    1.826   .     S
Si45   O176    1.614   .     S
Si46   C172    1.833   .     S
Si46   O173    1.622   .     S
Si46   C174    1.871   .     S
Si46   O184    1.570   .     S
Si47   O176    1.594   .     S
Si47   O177    1.611   .     S
Si47   O175    1.629   1_554 S
Si47   O192    1.609   1_554 S
Si48   O178    1.605   .     S
Si48   C179    1.927   .     S
Si48   C180    1.820   .     S
Si48   C181    1.960   .     S
Si49   C183    1.908   .     S
Si49   O184    1.580   .     S
Si49   C185    1.793   .     S
Si49   C186    1.875   .     S
Si50   O187    1.616   .     S
Si50   C188    1.868   .     S
Si50   C189    1.801   .     S
Si50   O190    1.620   .     S
Si51   C191    1.852   .     S
Si51   O192    1.607   .     S
Si51   C193    1.855   .     S
Si51   C194    1.899   .     S
C52    H196    1.120   .     S
C52    H197    1.098   .     S
C52    H198    1.118   .     S
C52    Si1     1.845   1_565 S
C53    H199    1.110   .     S
C53    H200    1.131   .     S
C53    H201    1.059   .     S
C54    H202    1.085   .     S
C54    H203    1.128   .     S
C54    H204    1.074   .     S
C55    H205    1.087   .     S
C55    H206    1.134   .     S
C55    H207    1.090   .     S
C56    H208    1.063   .     S
C56    H209    1.088   .     S
C56    H210    1.156   .     S
C56    Si3     1.795   1_556 S
C57    H211    1.118   .     S
C57    H212    1.139   .     S
C57    H213    1.037   .     S
C60    H214    1.065   .     S
C60    H215    1.132   .     S
C60    H216    1.146   .     S
C61    H217    1.153   .     S
C61    H218    1.131   .     S
C61    H219    1.131   .     S
C62    H220    1.071   .     S
C62    H221    1.108   .     S
C62    H222    1.100   .     S
C63    H223    1.091   .     S
C63    H224    1.079   .     S
C63    H225    1.112   .     S
C64    H226    1.124   .     S
C64    H227    1.102   .     S
C64    H228    1.128   .     S
C65    H229    1.104   .     S
C65    H230    1.121   .     S
C65    H231    1.085   .     S
C65    Si7     1.936   1_655 S
C66    H232    1.097   .     S
C66    H233    1.140   .     S
C66    H234    1.177   .     S
C66    Si7     1.976   1_655 S
C67    H235    1.101   .     S
C67    H236    1.110   .     S
C67    H237    1.091   .     S
C69    H238    1.161   .     S
C69    H239    1.086   .     S
C69    H240    1.086   .     S
C70    H241    1.097   .     S
C70    H242    1.126   .     S
C70    H243    1.116   .     S
C71    H244    1.113   .     S
C71    H245    1.104   .     S
C71    H246    1.054   .     S
C72    H247    1.130   .     S
C72    H248    1.068   .     S
C72    H249    1.104   .     S
C73    H250    1.106   .     S
C73    H251    1.066   .     S
C73    H252    1.037   .     S
C76    H253    1.119   .     S
C76    H254    1.088   .     S
C76    H255    1.121   .     S
C77    H256    1.090   .     S
C77    H257    1.088   .     S
C77    H258    1.105   .     S
C78    H259    1.125   .     S
C78    H260    1.101   .     S
C78    H261    1.139   .     S
C79    H262    1.119   .     S
C79    H263    1.135   .     S
C79    H264    1.085   .     S
O81    Si1     1.614   1_565 S
C82    H265    1.119   .     S
C82    H266    1.093   .     S
C82    H267    1.107   .     S
C83    H268    1.099   .     S
C83    H269    1.110   .     S
C83    H270    1.188   .     S
C83    Si13    1.850   1_655 S
C84    H271    1.096   .     S
C84    H272    1.116   .     S
C84    H273    1.110   .     S
C84    Si13    1.781   1_655 S
O85    Si12    1.613   1_556 S
O86    Si4     1.613   1_565 S
C88    H274    1.113   .     S
C88    H275    1.083   .     S
C88    H276    1.152   .     S
O89    Si4     1.669   1_565 S
C90    H277    1.090   .     S
C90    H278    1.011   .     S
C90    H279    1.056   .     S
C90    Si16    1.879   1_565 S
C92    H280    1.112   .     S
C92    H281    1.091   .     S
C92    H282    1.049   .     S
C94    H283    1.110   .     S
C94    H284    1.128   .     S
C94    H285    1.128   .     S
C95    H286    1.022   .     S
C95    H287    1.103   .     S
C95    H288    1.134   .     S
C96    H289    1.110   .     S
C96    H290    1.086   .     S
C96    H291    1.051   .     S
C98    H292    1.174   .     S
C98    H293    1.160   .     S
C98    H294    1.114   .     S
C99    H295    1.152   .     S
C99    H296    1.133   .     S
C99    H297    1.113   .     S
O101   Si18    1.585   1_556 S
O102   Si3     1.617   1_556 S
C108   H298    1.102   .     S
C108   H299    1.119   .     S
C108   H300    1.076   .     S
C109   H301    1.125   .     S
C109   H302    1.128   .     S
C109   H303    1.134   .     S
C109   Si25    1.820   1_556 S
C110   H304    1.097   .     S
C110   H305    1.122   .     S
C110   H306    1.075   .     S
C111   H307    1.136   .     S
C111   H308    1.139   .     S
C111   H309    1.114   .     S
C117   H310    1.095   .     S
C117   H311    1.111   .     S
C117   H312    1.089   .     S
C118   H313    1.118   .     S
C118   H314    1.079   .     S
C118   H315    1.094   .     S
C119   H316    1.110   .     S
C119   H317    1.085   .     S
C119   H318    1.136   .     S
C120   H319    1.140   .     S
C120   H320    1.141   .     S
C120   H321    1.068   .     S
C121   H322    1.180   .     S
C121   H323    1.120   .     S
C121   H324    1.116   .     S
C121   Si16    1.864   1_565 S
C123   H325    1.086   .     S
C123   H326    1.076   .     S
C123   H327    1.050   .     S
C124   H328    1.092   .     S
C124   H329    1.109   .     S
C124   H330    1.102   .     S
C125   H331    1.137   .     S
C125   H332    1.114   .     S
C125   H333    1.149   .     S
C126   H334    1.109   .     S
C126   H335    1.138   .     S
C126   H336    1.069   .     S
C128   H337    1.136   .     S
C128   H338    1.114   .     S
C128   H339    1.104   .     S
O129   Si29    1.589   1_556 S
O130   Si21    1.621   1_565 S
O131   Si12    1.561   1_556 S
C132   H340    1.108   .     S
C132   H341    1.102   .     S
C132   H342    1.122   .     S
C133   H343    1.125   .     S
C133   H344    1.161   .     S
C133   H345    1.143   .     S
C134   H346    1.146   .     S
C134   H347    1.133   .     S
C134   H348    1.079   .     S
O135   Si21    1.566   1_565 S
O136   Si2     1.607   1_655 S
C139   H349    1.156   .     S
C139   H350    1.044   .     S
C139   H351    1.126   .     S
C139   Si36    1.866   1_556 S
C141   H352    1.058   .     S
C141   H353    1.103   .     S
C141   H354    1.112   .     S
C142   H355    1.068   .     S
C142   H356    1.076   .     S
C142   H357    1.070   .     S
C143   H358    1.107   .     S
C143   H359    1.126   .     S
C143   H360    1.110   .     S
O145   Si2     1.620   1_655 S
C147   H361    1.119   .     S
C147   H362    1.106   .     S
C147   H363    1.089   .     S
C148   H364    1.107   .     S
C148   H365    1.096   .     S
C148   H366    1.099   .     S
C149   H367    1.093   .     S
C149   H368    1.108   .     S
C149   H369    1.116   .     S
C150   H370    1.053   .     S
C150   H371    1.093   .     S
C150   H372    1.137   .     S
O151   Si36    1.685   1_556 S
O152   Si18    1.644   1_556 S
C155   H373    1.080   .     S
C155   H374    1.103   .     S
C155   H375    1.120   .     S
C157   H376    1.125   .     S
C157   H377    1.086   .     S
C157   H378    1.107   .     S
C158   H379    1.066   .     S
C158   H380    1.082   .     S
C158   H381    1.116   .     S
C159   H382    1.089   .     S
C159   H383    1.136   .     S
C159   H384    1.095   .     S
C159   Si42    1.781   1_556 S
C160   H385    1.073   .     S
C160   H386    1.108   .     S
C160   H387    1.121   .     S
C161   H388    1.144   .     S
C161   H389    1.085   .     S
C161   H390    1.071   .     S
C163   H391    1.088   .     S
C163   H392    1.129   .     S
C163   H393    1.120   .     S
C164   H394    1.090   .     S
C164   H395    1.113   .     S
C164   H396    1.150   .     S
C165   H397    1.122   .     S
C165   H398    1.093   .     S
C165   H399    1.130   .     S
O167   Si42    1.608   1_556 S
O168   Si25    1.568   1_556 S
C171   H400    1.074   .     S
C171   H401    1.112   .     S
C171   H402    1.063   .     S
C172   H403    1.108   .     S
C172   H404    1.155   .     S
C172   H405    1.091   .     S
O173   Si34    1.575   1_565 S
C174   H406    1.122   .     S
C174   H407    1.083   .     S
C174   H408    1.107   .     S
O175   Si14    1.619   1_655 S
O175   Si47    1.629   1_556 S
O177   Si34    1.642   1_565 S
C179   H409    1.118   .     S
C179   H410    1.122   .     S
C179   H411    1.158   .     S
C180   H412    1.074   .     S
C180   H413    1.113   .     S
C180   H414    1.129   .     S
C181   H415    1.147   .     S
C181   H416    1.126   .     S
C181   H417    1.111   .     S
C182   H418    1.086   .     S
C182   H419    1.093   .     S
C182   H420    1.134   .     S
C183   H421    1.051   .     S
C183   H422    1.118   .     S
C183   H423    1.039   .     S
C185   H424    1.137   .     S
C185   H425    1.128   .     S
C185   H426    1.184   .     S
C186   H427    1.075   .     S
C186   H428    1.068   .     S
C186   H429    1.065   .     S
C188   H430    1.127   .     S
C188   H431    1.111   .     S
C188   H432    1.131   .     S
C189   H433    1.076   .     S
C189   H434    1.110   .     S
C189   H435    1.103   .     S
O190   Si14    1.622   1_655 S
C191   H436    1.093   .     S
C191   H437    1.097   .     S
C191   H438    1.133   .     S
O192   Si47    1.609   1_556 S
C193   H439    1.120   .     S
C193   H440    1.091   .     S
C193   H441    1.104   .     S
C194   H442    1.081   .     S
C194   H443    1.122   .     S
C194   H444    1.095   .     S
C195   H445    1.120   .     S
C195   H446    1.118   .     S
C195   H447    1.090   .     S
C195   Si29    1.820   1_556 S
