data_333-11-11-14-15-30-6
_audit_creation_date              2025-03-07
_audit_creation_method            'Materials Studio'
_symmetry_space_group_name_H-M    'P1'
_symmetry_Int_Tables_number       1
_symmetry_cell_setting            triclinic
loop_
_symmetry_equiv_pos_as_xyz
  x,y,z
_cell_length_a                    17.0057
_cell_length_b                    18.2362
_cell_length_c                    18.1749
_cell_angle_alpha                 95.3187
_cell_angle_beta                  88.1355
_cell_angle_gamma                 126.0417
loop_
_atom_site_label
_atom_site_type_symbol
_atom_site_fract_x
_atom_site_fract_y
_atom_site_fract_z
_atom_site_U_iso_or_equiv
_atom_site_adp_type
_atom_site_occupancy
Si1    Si    0.18398  -0.05455   0.16705   0.00000  Uiso   1.00
Si2    Si   -0.04797   0.09750   0.26299   0.00000  Uiso   1.00
Si3    Si    0.17972   0.05604   0.43784   0.00000  Uiso   1.00
Si4    Si    0.00657   0.22041   0.51794   0.00000  Uiso   1.00
Si5    Si    0.14888   0.15920   0.32996   0.00000  Uiso   1.00
Si6    Si    0.17301  -0.04901   0.81073   0.00000  Uiso   1.00
Si7    Si    0.07731   0.16860   0.80425   0.00000  Uiso   1.00
Si8    Si    0.07176   0.21812   0.13910   0.00000  Uiso   1.00
Si9    Si    0.17629   0.32777   0.40827   0.00000  Uiso   1.00
Si10   Si   -0.06651   0.46233   0.52482   0.00000  Uiso   1.00
Si11   Si    0.20231   0.50315   0.37657   0.00000  Uiso   1.00
Si12   Si    0.27075   0.35120   0.78643   0.00000  Uiso   1.00
Si13   Si    0.09009   0.60811   0.89470   0.00000  Uiso   1.00
Si14   Si   -0.00642   0.89860   0.50606   0.00000  Uiso   1.00
Si15   Si    0.21859   0.71486   0.76971   0.00000  Uiso   1.00
Si16   Si   -0.03316   0.84030   0.87087   0.00000  Uiso   1.00
Si17   Si    0.14988   0.80821   0.70125   0.00000  Uiso   1.00
Si18   Si    0.54911   0.05806   0.07898   0.00000  Uiso   1.00
Si19   Si    0.30371   0.14586   0.23958   0.00000  Uiso   1.00
Si20   Si    0.49695   0.17262   0.00855   0.00000  Uiso   1.00
Si21   Si    0.35349   0.17496   0.54449   0.00000  Uiso   1.00
Si22   Si    0.46409   0.18440   0.35371   0.00000  Uiso   1.00
Si23   Si    0.50441   0.05196   0.73794   0.00000  Uiso   1.00
Si24   Si    0.30960   0.09857   0.93257   0.00000  Uiso   1.00
Si25   Si    0.50705   0.16344   0.61838   0.00000  Uiso   1.00
Si26   Si    0.46337   0.28627   0.12797   0.00000  Uiso   1.00
Si27   Si    0.47774   0.44061   0.04738   0.00000  Uiso   1.00
Si28   Si    0.50954   0.34105   0.45926   0.00000  Uiso   1.00
Si29   Si    0.50116   0.44867   0.34210   0.00000  Uiso   1.00
Si30   Si    0.35030   0.44244   0.93857   0.00000  Uiso   1.00
Si31   Si    0.50760   0.60725   0.13323   0.00000  Uiso   1.00
Si32   Si    0.43246   0.89588   0.17173   0.00000  Uiso   1.00
Si33   Si    0.52432   0.92049  -0.05092   0.00000  Uiso   1.00
Si34   Si    0.38186   0.90465   0.83836   0.00000  Uiso   1.00
Si35   Si    0.51991   0.90249   0.66536   0.00000  Uiso   1.00
Si36   Si    0.78374  -0.07233   0.17798   0.00000  Uiso   1.00
Si37   Si    0.75565   0.18569   0.14641   0.00000  Uiso   1.00
Si38   Si    0.67882   0.17880   0.53234   0.00000  Uiso   1.00
Si39   Si    0.82523   0.16640   0.29980   0.00000  Uiso   1.00
Si40   Si    0.63135   0.19671   0.87189   0.00000  Uiso   1.00
Si41   Si    0.85576   0.22104   0.61777   0.00000  Uiso   1.00
Si42   Si    0.89789   0.32630   0.04560   0.00000  Uiso   1.00
Si43   Si    0.63906   0.43169   0.23665   0.00000  Uiso   1.00
Si44   Si    0.80494   0.30082   0.40695   0.00000  Uiso   1.00
Si45   Si    0.63549   0.50919   0.57098   0.00000  Uiso   1.00
Si46   Si    0.78163   0.43231   0.33345   0.00000  Uiso   1.00
Si47   Si    0.64976   0.49522   0.94299   0.00000  Uiso   1.00
Si48   Si    0.80895   0.61218   0.18728   0.00000  Uiso   1.00
Si49   Si    0.62840   0.75819   0.25238   0.00000  Uiso   1.00
Si50   Si    0.62571   0.85138   0.55909   0.00000  Uiso   1.00
Si51   Si    0.69503   0.92417   0.88070   0.00000  Uiso   1.00
C52    C     0.07159  -0.05699   0.16036   0.00000  Uiso   1.00
C53    C     0.13934   0.83831   0.21656   0.00000  Uiso   1.00
C54    C     0.22781   0.93722   0.07991   0.00000  Uiso   1.00
C55    C     0.16297   0.96928   0.36821   0.00000  Uiso   1.00
C56    C     0.08483   0.24918   0.59730   0.00000  Uiso   1.00
C57    C     0.94664   0.09880   0.49574   0.00000  Uiso   1.00
O58    O     0.03927   0.10591   0.30775   0.00000  Uiso   1.00
O59    O     0.16148   0.12169   0.40225   0.00000  Uiso   1.00
C60    C     0.21656   0.03977   0.74182   0.00000  Uiso   1.00
C61    C     0.10087   0.13497   0.88891   0.00000  Uiso   1.00
C62    C     1.01057   0.21672   0.83394   0.00000  Uiso   1.00
C63    C     1.01377   0.07175   0.73129   0.00000  Uiso   1.00
O64    O    -0.00125   0.13098   0.18388   0.00000  Uiso   1.00
C65    C     0.02449   0.20285   0.04799   0.00000  Uiso   1.00
C66    C     0.08066   0.31308   0.19396   0.00000  Uiso   1.00
C67    C     0.19191   0.24038   0.12871   0.00000  Uiso   1.00
O68    O     0.06647   0.27430   0.44627   0.00000  Uiso   1.00
O69    O     0.18737   0.26088   0.35035   0.00000  Uiso   1.00
C70    C     0.27772   0.37529   0.47425   0.00000  Uiso   1.00
C71    C     0.03261   0.48283   0.58089   0.00000  Uiso   1.00
C72    C    -0.01489   0.57716   0.49037   0.00000  Uiso   1.00
C73    C     0.83057   0.43368   0.58790   0.00000  Uiso   1.00
C74    C     0.07565   0.46382   0.36912   0.00000  Uiso   1.00
O75    O     0.19889   0.41319   0.36737   0.00000  Uiso   1.00
C76    C     0.25917   0.56249   0.46837   0.00000  Uiso   1.00
C77    C     0.26288   0.57650   0.29995   0.00000  Uiso   1.00
O78    O     0.18005   0.24867   0.77343   0.00000  Uiso   1.00
C79    C     0.37420   0.37868   0.72540   0.00000  Uiso   1.00
C80    C     0.24519   0.43588   0.76444   0.00000  Uiso   1.00
C81    C     0.15345   0.56759   0.93614   0.00000  Uiso   1.00
C82    C     1.04533   0.65215   0.97009   0.00000  Uiso   1.00
C83    C     0.98068   0.51377   0.83507   0.00000  Uiso   1.00
O84    O     0.09371   0.99507   0.49203   0.00000  Uiso   1.00
C85    C     0.96644   0.90770   0.60346   0.00000  Uiso   1.00
C86    C     0.89918   0.87066   0.44104   0.00000  Uiso   1.00
O87    O     0.16142   0.68736   0.84351   0.00000  Uiso   1.00
C88    C     0.23433   0.62558   0.73016   0.00000  Uiso   1.00
C89    C    -0.03603   0.73426   0.86862   0.00000  Uiso   1.00
O90    O     0.06470   0.91841   0.83345   0.00000  Uiso   1.00
C91    C     0.96100   0.87858   0.96910   0.00000  Uiso   1.00
C92    C     0.84999   0.80763   0.82243   0.00000  Uiso   1.00
C93    C    -0.00328   0.79788   0.47797   0.00000  Uiso   1.00
C94    C     0.01721   0.73531   0.68440   0.00000  Uiso   1.00
O95    O     0.17239   0.73974   0.71321   0.00000  Uiso   1.00
O96    O     0.17037   0.86942   0.77383   0.00000  Uiso   1.00
C97    C     0.22254   0.87353   0.62116   0.00000  Uiso   1.00
O98    O     0.26279   0.04012   0.21611   0.00000  Uiso   1.00
O99    O     0.21594   0.15544   0.26531   0.00000  Uiso   1.00
O100   O     0.52566   0.12889   0.06372   0.00000  Uiso   1.00
O101   O     0.28165   0.10815   0.48146   0.00000  Uiso   1.00
C102   C     0.27605   0.18119   0.61962   0.00000  Uiso   1.00
O103   O     0.37853   0.18225   0.31060   0.00000  Uiso   1.00
C104   C     0.43450   0.08817   0.40393   0.00000  Uiso   1.00
O105   O     0.24508   0.00302   0.88341   0.00000  Uiso   1.00
O106   O     0.38830   0.10208   0.98015   0.00000  Uiso   1.00
C107   C     0.37588   0.20778   0.88595   0.00000  Uiso   1.00
C108   C     0.23263   0.10666   1.00611   0.00000  Uiso   1.00
O109   O     0.41487   0.14087   0.57404   0.00000  Uiso   1.00
O110   O     0.47298   0.07816   0.66386   0.00000  Uiso   1.00
C111   C     0.54112   0.26167   0.68060   0.00000  Uiso   1.00
O112   O     0.36394   0.20768   0.17018   0.00000  Uiso   1.00
O113   O     0.49336   0.24784   0.05535   0.00000  Uiso   1.00
O114   O     0.44676   0.36057   0.09996   0.00000  Uiso   1.00
O115   O     0.42799   0.27552   0.51480   0.00000  Uiso   1.00
O116   O     0.52398   0.27470   0.40919   0.00000  Uiso   1.00
C117   C     0.39440   0.39748   0.27530   0.00000  Uiso   1.00
O118   O     0.47491   0.38535   0.40658   0.00000  Uiso   1.00
C119   C     0.53542   0.56236   0.37000   0.00000  Uiso   1.00
O120   O     0.30747   0.36846   0.87056   0.00000  Uiso   1.00
O121   O     0.38507   0.41271   1.00343   0.00000  Uiso   1.00
C122   C     0.45702   0.55118   0.90515   0.00000  Uiso   1.00
C123   C     0.25135   0.45021   0.97558   0.00000  Uiso   1.00
C124   C     0.38352   0.54563   0.16415   0.00000  Uiso   1.00
O125   O     0.52787   0.53518   0.09791   0.00000  Uiso   1.00
C126   C     0.31610   0.80214   0.11858   0.00000  Uiso   1.00
C127   C     0.51805   0.86312   0.17206   0.00000  Uiso   1.00
O128   O     0.47144   0.98812   0.13929   0.00000  Uiso   1.00
C129   C     0.40932   0.90246   0.27427   0.00000  Uiso   1.00
C130   C     0.53445   0.68884   0.06483   0.00000  Uiso   1.00
C131   C     0.44222   0.80316  -0.02194   0.00000  Uiso   1.00
O132   O     0.53311   0.99876   0.00151   0.00000  Uiso   1.00
O133   O     0.32490   0.80851   0.79078   0.00000  Uiso   1.00
O134   O     0.47960   0.92467   0.87284   0.00000  Uiso   1.00
O135   O     0.41491   0.98190   0.78490   0.00000  Uiso   1.00
C136   C     0.29814   0.88724   0.91623   0.00000  Uiso   1.00
C137   C     0.40445   0.85146   0.61294   0.00000  Uiso   1.00
C138   C     0.50539   0.81459   0.72283   0.00000  Uiso   1.00
O139   O     0.55055   0.99836   0.70675   0.00000  Uiso   1.00
C140   C     0.76378  -0.00650   0.12310   0.00000  Uiso   1.00
O141   O     0.85569  -0.00732   0.24585   0.00000  Uiso   1.00
C142   C     0.84198   0.88234   0.12071   0.00000  Uiso   1.00
O143   O     0.65342   0.09955   0.11642   0.00000  Uiso   1.00
C144   C     0.74028   0.27308   0.18692   0.00000  Uiso   1.00
C145   C     0.54694   0.17988   0.28677   0.00000  Uiso   1.00
C146   C     0.62014   0.05811   0.50483   0.00000  Uiso   1.00
O147   O     0.59778   0.19208   0.56409   0.00000  Uiso   1.00
O148   O     0.91533   0.15803   0.29974   0.00000  Uiso   1.00
O149   O     0.79710   0.16121   0.21338   0.00000  Uiso   1.00
C150   C     0.72440   0.06049   0.33952   0.00000  Uiso   1.00
O151   O     0.57950   0.14289   0.79359   0.00000  Uiso   1.00
C152   C     0.69869   0.14816   0.88968   0.00000  Uiso   1.00
C153   C     0.73242   0.31011   0.84742   0.00000  Uiso   1.00
O154   O     0.56618   0.20338   0.93566   0.00000  Uiso   1.00
O155   O     0.92496   0.23716   0.54799   0.00000  Uiso   1.00
O156   O     0.76337   0.21665   0.59107   0.00000  Uiso   1.00
C157   C     0.81124   0.11305   0.65549   0.00000  Uiso   1.00
C158   C     0.91951   0.31165   0.69345   0.00000  Uiso   1.00
O159   O     0.83452   0.23350   0.08508   0.00000  Uiso   1.00
C160   C     0.92634   0.29987  -0.04418   0.00000  Uiso   1.00
C161   C     0.82466   0.37190   0.03870   0.00000  Uiso   1.00
C162   C     1.01494   0.41427   0.09844   0.00000  Uiso   1.00
O163   O     0.55079   0.33994   0.19057   0.00000  Uiso   1.00
O164   O     0.59122   0.46361   0.29746   0.00000  Uiso   1.00
O165   O     0.71518   0.23144   0.45990   0.00000  Uiso   1.00
O166   O     0.84695   0.25674   0.34902   0.00000  Uiso   1.00
O167   O     0.89490   0.38129   0.46124   0.00000  Uiso   1.00
O168   O     0.60187   0.42441   0.51131   0.00000  Uiso   1.00
C169   C     0.65665   0.49090   0.66260   0.00000  Uiso   1.00
C170   C     0.74778   0.61512   0.54125   0.00000  Uiso   1.00
C171   C     0.54254   0.53072   0.57896   0.00000  Uiso   1.00
C172   C     0.89602   0.49221   0.28140   0.00000  Uiso   1.00
O173   O     0.69812   0.40509   0.27691   0.00000  Uiso   1.00
O174   O     0.76029   0.34200   0.36403   0.00000  Uiso   1.00
C175   C     0.78756   0.50945   0.41057   0.00000  Uiso   1.00
C176   C     0.61581   0.44494   0.84465   0.00000  Uiso   1.00
C177   C     0.72657   0.47059   0.99099   0.00000  Uiso   1.00
C178   C     0.69760   0.61695   0.94424   0.00000  Uiso   1.00
O179   O     0.55346   0.44770   0.99042   0.00000  Uiso   1.00
O180   O     0.71638   0.51275   0.19104   0.00000  Uiso   1.00
C181   C     0.90900   0.61571   0.13660   0.00000  Uiso   1.00
C182   C     0.77163   0.66602   0.13267   0.00000  Uiso   1.00
C183   C     0.85409   0.67911   0.28290   0.00000  Uiso   1.00
O184   O     0.57505   0.66464   0.20354   0.00000  Uiso   1.00
C185   C     0.73498   0.78350   0.31306   0.00000  Uiso   1.00
O186   O     0.68351   0.84593   0.20772   0.00000  Uiso   1.00
C187   C     0.53834   0.75889   0.31059   0.00000  Uiso   1.00
C188   C     0.51212   0.73270   0.53241   0.00000  Uiso   1.00
C189   C     0.71467   0.84246   0.60268   0.00000  Uiso   1.00
C190   C     0.66939   0.89769   0.46807   0.00000  Uiso   1.00
O191   O     0.59587   0.90941   0.60806   0.00000  Uiso   1.00
C192   C     0.63972   0.80253   0.85929   0.00000  Uiso   1.00
C193   C     0.81682   0.96948   0.92923   0.00000  Uiso   1.00
C194   C     0.72498   0.99145   0.80214   0.00000  Uiso   1.00
O195   O     0.63183   0.94206   0.93659   0.00000  Uiso   1.00
H196   H     0.07694  -0.00677   0.12848   0.00000  Uiso   1.00
H197   H     0.04791  -0.05588   0.21740   0.00000  Uiso   1.00
H198   H     0.01521  -0.12831   0.12936   0.00000  Uiso   1.00
H199   H     0.19935   0.85118   0.24986   0.00000  Uiso   1.00
H200   H     0.10785   0.77550   0.18080   0.00000  Uiso   1.00
H201   H     0.08090   0.82785   0.25594   0.00000  Uiso   1.00
H202   H     0.20458   0.86479   0.07061   0.00000  Uiso   1.00
H203   H     0.31138   0.99538   0.08137   0.00000  Uiso   1.00
H204   H     0.18906   0.94858   0.03660   0.00000  Uiso   1.00
H205   H     0.14223   0.90793   0.39349   0.00000  Uiso   1.00
H206   H     0.23438   0.99954   0.34599   0.00000  Uiso   1.00
H207   H     0.11119   0.95550   0.32545   0.00000  Uiso   1.00
H208   H     0.12498   0.32567   0.60889   0.00000  Uiso   1.00
H209   H     0.12990   0.22314   0.58776   0.00000  Uiso   1.00
H210   H     0.04182   0.21230   0.64586   0.00000  Uiso   1.00
H211   H     0.89676   0.05833   0.53932   0.00000  Uiso   1.00
H212   H     1.00553   0.08955   0.48829   0.00000  Uiso   1.00
H213   H     0.90864   0.08333   0.43925   0.00000  Uiso   1.00
H214   H     0.18168   0.00265   0.68751   0.00000  Uiso   1.00
H215   H     0.29349   0.07466   0.73878   0.00000  Uiso   1.00
H216   H     0.21231   0.09489   0.76581   0.00000  Uiso   1.00
H217   H     0.02903   0.08481   0.91413   0.00000  Uiso   1.00
H218   H     0.14631   0.19621   0.92574   0.00000  Uiso   1.00
H219   H     0.13962   0.10554   0.87687   0.00000  Uiso   1.00
H220   H     0.94169   0.16618   0.85908   0.00000  Uiso   1.00
H221   H     1.00085   0.24765   0.78684   0.00000  Uiso   1.00
H222   H     1.05188   0.26595   0.88391   0.00000  Uiso   1.00
H223   H     0.95954   0.00960   0.75731   0.00000  Uiso   1.00
H224   H     1.06901   0.06918   0.69923   0.00000  Uiso   1.00
H225   H     0.96895   0.08127   0.69580   0.00000  Uiso   1.00
H226   H     0.08685   0.26419   0.01918   0.00000  Uiso   1.00
H227   H    -0.04406   0.19689   0.04535   0.00000  Uiso   1.00
H228   H     0.00662   0.13750   0.02251   0.00000  Uiso   1.00
H229   H     0.10639   0.31633   0.24806   0.00000  Uiso   1.00
H230   H     0.00530   0.29123   0.19379   0.00000  Uiso   1.00
H231   H     0.13052   0.37781   0.16579   0.00000  Uiso   1.00
H232   H     0.23236   0.27906   0.08027   0.00000  Uiso   1.00
H233   H     0.17792   0.17619   0.11687   0.00000  Uiso   1.00
H234   H     0.23603   0.27302   0.17929   0.00000  Uiso   1.00
H235   H     0.27829   0.31634   0.48817   0.00000  Uiso   1.00
H236   H     0.26955   0.40518   0.52675   0.00000  Uiso   1.00
H237   H     0.35138   0.42420   0.45311   0.00000  Uiso   1.00
H238   H     0.01468   0.49620   0.63641   0.00000  Uiso   1.00
H239   H     0.10720   0.54352   0.56995   0.00000  Uiso   1.00
H240   H     0.03229   0.41829   0.57576   0.00000  Uiso   1.00
H241   H    -0.03783   0.61601   0.52543   0.00000  Uiso   1.00
H242   H    -0.03691   0.56738   0.43046   0.00000  Uiso   1.00
H243   H     0.06317   0.61221   0.49978   0.00000  Uiso   1.00
H244   H     0.85904   0.49767   0.62699   0.00000  Uiso   1.00
H245   H     0.82004   0.38644   0.62486   0.00000  Uiso   1.00
H246   H     0.75949   0.40328   0.55857   0.00000  Uiso   1.00
H247   H     0.05291   0.43740   0.31111   0.00000  Uiso   1.00
H248   H     0.07529   0.51986   0.39546   0.00000  Uiso   1.00
H249   H     0.03639   0.40732   0.40229   0.00000  Uiso   1.00
H250   H     0.24166   0.61337   0.48286   0.00000  Uiso   1.00
H251   H     0.33778   0.60114   0.46365   0.00000  Uiso   1.00
H252   H     0.22620   0.51220   0.51044   0.00000  Uiso   1.00
H253   H     0.24280   0.62472   0.30245   0.00000  Uiso   1.00
H254   H     0.24126   0.54041   0.24530   0.00000  Uiso   1.00
H255   H     0.34286   0.61970   0.30628   0.00000  Uiso   1.00
H256   H     0.34562   0.36954   0.66536   0.00000  Uiso   1.00
H257   H     0.40021   0.33787   0.74097   0.00000  Uiso   1.00
H258   H     0.43015   0.45000   0.73301   0.00000  Uiso   1.00
H259   H     0.16609   0.40092   0.76676   0.00000  Uiso   1.00
H260   H     0.27150   0.45491   0.70782   0.00000  Uiso   1.00
H261   H     0.30102   0.50358   0.79249   0.00000  Uiso   1.00
H262   H     0.20072   0.55972   0.89416   0.00000  Uiso   1.00
H263   H     0.09743   0.50342   0.95626   0.00000  Uiso   1.00
H264   H     0.20368   0.61293   0.98345   0.00000  Uiso   1.00
H265   H     1.05574   0.64004   1.02876   0.00000  Uiso   1.00
H266   H     0.97178   0.61805   0.96157   0.00000  Uiso   1.00
H267   H     1.08911   0.72802   0.97290   0.00000  Uiso   1.00
H268   H     1.01039   0.50371   0.78797   0.00000  Uiso   1.00
H269   H     0.93307   0.53523   0.82311   0.00000  Uiso   1.00
H270   H     0.94244   0.45464   0.86233   0.00000  Uiso   1.00
H271   H     0.94839   0.95653   0.60487   0.00000  Uiso   1.00
H272   H     1.03364   0.93368   0.63687   0.00000  Uiso   1.00
H273   H     0.90827   0.84340   0.62462   0.00000  Uiso   1.00
H274   H     0.86954   0.90771   0.46103   0.00000  Uiso   1.00
H275   H     0.83882   0.79493   0.44523   0.00000  Uiso   1.00
H276   H     0.92915   0.88347   0.38356   0.00000  Uiso   1.00
H277   H     0.25881   0.63564   0.67540   0.00000  Uiso   1.00
H278   H     0.16965   0.55716   0.73791   0.00000  Uiso   1.00
H279   H     0.28907   0.63054   0.76804   0.00000  Uiso   1.00
H280   H    -0.10586   0.67311   0.83975   0.00000  Uiso   1.00
H281   H    -0.04100   0.71817   0.92398   0.00000  Uiso   1.00
H282   H     0.03093   0.74199   0.85488   0.00000  Uiso   1.00
H283   H     0.88788   0.83208   0.99561   0.00000  Uiso   1.00
H284   H     0.99235   0.95031   0.97477   0.00000  Uiso   1.00
H285   H     1.00458   0.86356   0.99839   0.00000  Uiso   1.00
H286   H     0.78780   0.75917   0.85093   0.00000  Uiso   1.00
H287   H     0.84634   0.78399   0.76380   0.00000  Uiso   1.00
H288   H     0.85368   0.86832   0.82064   0.00000  Uiso   1.00
H289   H    -0.02777   0.77193   0.42087   0.00000  Uiso   1.00
H290   H    -0.04108   0.74106   0.51137   0.00000  Uiso   1.00
H291   H     0.06987   0.82148   0.48282   0.00000  Uiso   1.00
H292   H     0.00246   0.71833   0.62356   0.00000  Uiso   1.00
H293   H    -0.01927   0.76405   0.70640   0.00000  Uiso   1.00
H294   H    -0.00714   0.67569   0.71557   0.00000  Uiso   1.00
H295   H     0.19009   0.90453   0.59935   0.00000  Uiso   1.00
H296   H     0.21816   0.83146   0.56757   0.00000  Uiso   1.00
H297   H     0.29271   0.92908   0.64431   0.00000  Uiso   1.00
H298   H     0.20232   0.11809   0.62081   0.00000  Uiso   1.00
H299   H     0.27488   0.23703   0.60659   0.00000  Uiso   1.00
H300   H     0.29874   0.19100   0.67708   0.00000  Uiso   1.00
H301   H     0.35913   0.04879   0.42935   0.00000  Uiso   1.00
H302   H     0.48804   0.11186   0.44740   0.00000  Uiso   1.00
H303   H     0.43744   0.03950   0.36496   0.00000  Uiso   1.00
H304   H     0.31973   0.21238   0.85826   0.00000  Uiso   1.00
H305   H     0.43221   0.21051   0.85103   0.00000  Uiso   1.00
H306   H     0.41216   0.26566   0.92927   0.00000  Uiso   1.00
H307   H     0.23495   0.16689   0.99246   0.00000  Uiso   1.00
H308   H     0.26648   0.12050   1.06085   0.00000  Uiso   1.00
H309   H     0.15491   0.04401   1.00720   0.00000  Uiso   1.00
H310   H     0.60564   0.28441   0.70806   0.00000  Uiso   1.00
H311   H     0.47792   0.24179   0.71622   0.00000  Uiso   1.00
H312   H     0.54132   0.31280   0.65141   0.00000  Uiso   1.00
H313   H     0.35901   0.32513   0.27029   0.00000  Uiso   1.00
H314   H     0.42258   0.42311   0.21905   0.00000  Uiso   1.00
H315   H     0.34359   0.41525   0.29818   0.00000  Uiso   1.00
H316   H     0.54313   0.59596   0.32197   0.00000  Uiso   1.00
H317   H     0.60308   0.59934   0.40189   0.00000  Uiso   1.00
H318   H     0.47424   0.55669   0.40053   0.00000  Uiso   1.00
H319   H     0.43473   0.59588   0.90006   0.00000  Uiso   1.00
H320   H     0.47484   0.53512   0.85137   0.00000  Uiso   1.00
H321   H     0.51508   0.58739   0.94769   0.00000  Uiso   1.00
H322   H     0.20411   0.44697   0.93076   0.00000  Uiso   1.00
H323   H     0.28396   0.51961   1.00451   0.00000  Uiso   1.00
H324   H     0.20671   0.39454   1.01382   0.00000  Uiso   1.00
H325   H     0.35696   0.58749   0.16075   0.00000  Uiso   1.00
H326   H     0.38034   0.53207   0.21770   0.00000  Uiso   1.00
H327   H     0.32953   0.47790   0.13274   0.00000  Uiso   1.00
H328   H     0.30985   0.73595   0.11059   0.00000  Uiso   1.00
H329   H     0.31324   0.82133   0.06048   0.00000  Uiso   1.00
H330   H     0.26190   0.79751   0.15661   0.00000  Uiso   1.00
H331   H     0.55576   0.89079   0.22591   0.00000  Uiso   1.00
H332   H     0.56299   0.88311   0.12238   0.00000  Uiso   1.00
H333   H     0.46946   0.78510   0.17398   0.00000  Uiso   1.00
H334   H     0.37109   0.93483   0.27891   0.00000  Uiso   1.00
H335   H     0.47789   0.94020   0.31184   0.00000  Uiso   1.00
H336   H     0.36312   0.83203   0.29254   0.00000  Uiso   1.00
H337   H     0.46557   0.66148   0.03178   0.00000  Uiso   1.00
H338   H     0.59104   0.69417   0.03098   0.00000  Uiso   1.00
H339   H     0.56312   0.75486   0.09511   0.00000  Uiso   1.00
H340   H     0.36381   0.77090  -0.03477   0.00000  Uiso   1.00
H341   H     0.45145   0.79926   0.03659   0.00000  Uiso   1.00
H342   H     0.45648   0.75984  -0.05320   0.00000  Uiso   1.00
H343   H     0.28461   0.83541   0.95086   0.00000  Uiso   1.00
H344   H     0.22445   0.86401   0.89314   0.00000  Uiso   1.00
H345   H     0.33360   0.94772   0.95235   0.00000  Uiso   1.00
H346   H     0.34158   0.81860   0.65038   0.00000  Uiso   1.00
H347   H     0.38978   0.80245   0.56829   0.00000  Uiso   1.00
H348   H     0.39332   0.90088   0.58915   0.00000  Uiso   1.00
H349   H     0.44961   0.74988   0.70201   0.00000  Uiso   1.00
H350   H     0.49140   0.82877   0.78034   0.00000  Uiso   1.00
H351   H     0.57874   0.82371   0.72708   0.00000  Uiso   1.00
H352   H     0.72055  -0.04172   0.07414   0.00000  Uiso   1.00
H353   H     0.83604   0.05607   0.10588   0.00000  Uiso   1.00
H354   H     0.71624   0.00247   0.15783   0.00000  Uiso   1.00
H355   H     0.90407   0.93524   0.09173   0.00000  Uiso   1.00
H356   H     0.78562   0.83352   0.07497   0.00000  Uiso   1.00
H357   H     0.86689   0.85260   0.15402   0.00000  Uiso   1.00
H358   H     0.71919   0.25121   0.24430   0.00000  Uiso   1.00
H359   H     0.68806   0.27520   0.15381   0.00000  Uiso   1.00
H360   H     0.81299   0.33891   0.19436   0.00000  Uiso   1.00
H361   H     0.59307   0.17532   0.32376   0.00000  Uiso   1.00
H362   H     0.58602   0.24165   0.25457   0.00000  Uiso   1.00
H363   H     0.50831   0.11519   0.24526   0.00000  Uiso   1.00
H364   H     0.58232   0.03475   0.45279   0.00000  Uiso   1.00
H365   H     0.56491   0.02363   0.54676   0.00000  Uiso   1.00
H366   H     0.67648   0.04586   0.50749   0.00000  Uiso   1.00
H367   H     0.71417  -0.00225   0.30995   0.00000  Uiso   1.00
H368   H     0.65683   0.05694   0.33600   0.00000  Uiso   1.00
H369   H     0.73851   0.06032   0.39903   0.00000  Uiso   1.00
H370   H     0.72230   0.16850   0.94729   0.00000  Uiso   1.00
H371   H     0.75972   0.16468   0.85136   0.00000  Uiso   1.00
H372   H     0.65125   0.07756   0.87605   0.00000  Uiso   1.00
H373   H     0.79382   0.33718   0.88522   0.00000  Uiso   1.00
H374   H     0.71554   0.35709   0.84967   0.00000  Uiso   1.00
H375   H     0.75893   0.30655   0.78682   0.00000  Uiso   1.00
H376   H     0.86935   0.11419   0.68400   0.00000  Uiso   1.00
H377   H     0.77130   0.05235   0.60586   0.00000  Uiso   1.00
H378   H     0.75267   0.10629   0.69458   0.00000  Uiso   1.00
H379   H     0.99321   0.34979   0.68452   0.00000  Uiso   1.00
H380   H     0.91140   0.28736   0.75274   0.00000  Uiso   1.00
H381   H     0.89858   0.35848   0.69574   0.00000  Uiso   1.00
H382   H     0.90723   0.23146  -0.05327   0.00000  Uiso   1.00
H383   H     1.00848   0.33817  -0.04902   0.00000  Uiso   1.00
H384   H     0.90338   0.32655  -0.08505   0.00000  Uiso   1.00
H385   H     0.81148   0.39278   0.09602   0.00000  Uiso   1.00
H386   H     0.75551   0.32270   0.00541   0.00000  Uiso   1.00
H387   H     0.87046   0.43519   0.00952   0.00000  Uiso   1.00
H388   H     1.06148   0.39818   0.07117   0.00000  Uiso   1.00
H389   H     0.99966   0.40473   0.15819   0.00000  Uiso   1.00
H390   H     1.04105   0.48754   0.09710   0.00000  Uiso   1.00
H391   H     0.69588   0.45869   0.66099   0.00000  Uiso   1.00
H392   H     0.58690   0.44729   0.68755   0.00000  Uiso   1.00
H393   H     0.69811   0.55941   0.69732   0.00000  Uiso   1.00
H394   H     0.81070   0.61104   0.54341   0.00000  Uiso   1.00
H395   H     0.76176   0.67253   0.58251   0.00000  Uiso   1.00
H396   H     0.74361   0.63429   0.48920   0.00000  Uiso   1.00
H397   H     0.47265   0.46736   0.58729   0.00000  Uiso   1.00
H398   H     0.54051   0.56046   0.53366   0.00000  Uiso   1.00
H399   H     0.55885   0.58181   0.62732   0.00000  Uiso   1.00
H400   H     0.88131   0.48160   0.22298   0.00000  Uiso   1.00
H401   H     0.93145   0.45958   0.28909   0.00000  Uiso   1.00
H402   H     0.94180   0.56642   0.30824   0.00000  Uiso   1.00
H403   H     0.78763   0.48954   0.46668   0.00000  Uiso   1.00
H404   H     0.71690   0.50301   0.41192   0.00000  Uiso   1.00
H405   H     0.84654   0.58119   0.40940   0.00000  Uiso   1.00
H406   H     0.67985   0.45745   0.81433   0.00000  Uiso   1.00
H407   H     0.58274   0.47612   0.82164   0.00000  Uiso   1.00
H408   H     0.56122   0.37758   0.84393   0.00000  Uiso   1.00
H409   H     0.68682   0.39521   0.98346   0.00000  Uiso   1.00
H410   H     0.72664   0.48645   1.04804   0.00000  Uiso   1.00
H411   H     0.80234   0.50971   0.97268   0.00000  Uiso   1.00
H412   H     0.77424   0.65384   0.94094   0.00000  Uiso   1.00
H413   H     0.68208   0.64743   0.99113   0.00000  Uiso   1.00
H414   H     0.65805   0.61508   0.89976   0.00000  Uiso   1.00
H415   H     0.88419   0.55705   0.09545   0.00000  Uiso   1.00
H416   H     0.96085   0.62480   0.17984   0.00000  Uiso   1.00
H417   H     0.94961   0.67798   0.11113   0.00000  Uiso   1.00
H418   H     0.72015   0.62030   0.08939   0.00000  Uiso   1.00
H419   H     0.83380   0.72379   0.10815   0.00000  Uiso   1.00
H420   H     0.72791   0.68340   0.16354   0.00000  Uiso   1.00
H421   H     0.89597   0.75075   0.27785   0.00000  Uiso   1.00
H422   H     0.90319   0.66948   0.30785   0.00000  Uiso   1.00
H423   H     0.79023   0.65794   0.31741   0.00000  Uiso   1.00
H424   H     0.71094   0.73677   0.35873   0.00000  Uiso   1.00
H425   H     0.77109   0.85446   0.34006   0.00000  Uiso   1.00
H426   H     0.78931   0.78851   0.27371   0.00000  Uiso   1.00
H427   H     0.51272   0.70850   0.35200   0.00000  Uiso   1.00
H428   H     0.47420   0.72915   0.27169   0.00000  Uiso   1.00
H429   H     0.57511   0.83041   0.32855   0.00000  Uiso   1.00
H430   H     0.47984   0.68796   0.57646   0.00000  Uiso   1.00
H431   H     0.53450   0.69853   0.49059   0.00000  Uiso   1.00
H432   H     0.46490   0.74192   0.50027   0.00000  Uiso   1.00
H433   H     0.68284   0.80350   0.65216   0.00000  Uiso   1.00
H434   H     0.77855   0.90849   0.61800   0.00000  Uiso   1.00
H435   H     0.74130   0.80614   0.56212   0.00000  Uiso   1.00
H436   H     0.61552   0.90905   0.44388   0.00000  Uiso   1.00
H437   H     0.67610   0.84914   0.43201   0.00000  Uiso   1.00
H438   H     0.74685   0.96310   0.47397   0.00000  Uiso   1.00
H439   H     0.55845   0.76376   0.85227   0.00000  Uiso   1.00
H440   H     0.65175   0.77264   0.90363   0.00000  Uiso   1.00
H441   H     0.66547   0.79000   0.80659   0.00000  Uiso   1.00
H442   H     0.80299   0.91791   0.96969   0.00000  Uiso   1.00
H443   H     0.84102   1.03377   0.96437   0.00000  Uiso   1.00
H444   H     0.86582   0.97737   0.88035   0.00000  Uiso   1.00
H445   H     0.77781   1.06236   0.81746   0.00000  Uiso   1.00
H446   H     0.65974   0.98322   0.78072   0.00000  Uiso   1.00
H447   H     0.75941   0.96684   0.76492   0.00000  Uiso   1.00
loop_
_geom_bond_atom_site_label_1
_geom_bond_atom_site_label_2
_geom_bond_distance
_geom_bond_site_symmetry_2
_ccdc_geom_bond_type
Si1    C52     1.893   .     S
Si1    O98     1.625   .     S
Si1    C53     1.934   1_545 S
Si1    C54     1.760   1_545 S
Si2    O58     1.635   .     S
Si2    O64     1.609   .     S
Si2    O141    1.635   1_455 S
Si2    O148    1.643   1_455 S
Si3    O59     1.594   .     S
Si3    O101    1.596   .     S
Si3    C55     1.819   1_545 S
Si3    O84     1.594   1_545 S
Si4    C56     1.814   .     S
Si4    O68     1.635   .     S
Si4    C57     1.822   1_455 S
Si4    O155    1.654   1_455 S
Si5    O58     1.558   .     S
Si5    O59     1.611   .     S
Si5    O69     1.570   .     S
Si5    O99     1.636   .     S
Si6    C60     1.909   .     S
Si6    O105    1.629   .     S
Si6    O90     1.620   1_545 S
Si6    O96     1.550   1_545 S
Si7    C61     1.846   .     S
Si7    O78     1.608   .     S
Si7    C62     1.842   1_455 S
Si7    C63     1.860   1_455 S
Si8    O64     1.607   .     S
Si8    C65     1.790   .     S
Si8    C66     1.843   .     S
Si8    C67     1.841   .     S
Si9    O68     1.677   .     S
Si9    O69     1.628   .     S
Si9    C70     1.829   .     S
Si9    O75     1.618   .     S
Si10   C71     1.822   .     S
Si10   C72     1.895   .     S
Si10   C73     1.886   1_455 S
Si10   O167    1.594   1_455 S
Si11   C74     1.832   .     S
Si11   O75     1.600   .     S
Si11   C76     1.852   .     S
Si11   C77     1.849   .     S
Si12   O78     1.574   .     S
Si12   C79     1.875   .     S
Si12   C80     1.910   .     S
Si12   O120    1.603   .     S
Si13   C81     1.835   .     S
Si13   O87     1.593   .     S
Si13   C82     1.884   1_455 S
Si13   C83     1.901   1_455 S
Si14   O84     1.609   .     S
Si14   C93     1.891   .     S
Si14   C85     1.832   1_455 S
Si14   C86     1.812   1_455 S
Si15   O87     1.569   .     S
Si15   C88     1.877   .     S
Si15   O95     1.561   .     S
Si15   O133    1.619   .     S
Si16   C89     1.902   .     S
Si16   O90     1.605   .     S
Si16   C91     1.877   1_455 S
Si16   C92     1.924   1_455 S
Si17   C94     1.842   .     S
Si17   O95     1.540   .     S
Si17   O96     1.551   .     S
Si17   C97     1.881   .     S
Si18   O100    1.607   .     S
Si18   O143    1.608   .     S
Si18   O128    1.660   1_545 S
Si18   O132    1.619   1_545 S
Si19   O98     1.635   .     S
Si19   O99     1.650   .     S
Si19   O103    1.637   .     S
Si19   O112    1.653   .     S
Si20   O100    1.587   .     S
Si20   O113    1.577   .     S
Si20   O106    1.574   1_554 S
Si20   O154    1.648   1_554 S
Si21   O101    1.540   .     S
Si21   C102    1.908   .     S
Si21   O109    1.621   .     S
Si21   O115    1.632   .     S
Si22   O103    1.654   .     S
Si22   C104    1.842   .     S
Si22   O116    1.597   .     S
Si22   C145    1.865   .     S
Si23   O110    1.671   .     S
Si23   O151    1.638   .     S
Si23   O135    1.583   1_545 S
Si23   O139    1.632   1_545 S
Si24   O105    1.601   .     S
Si24   O106    1.583   .     S
Si24   C107    1.888   .     S
Si24   C108    1.897   .     S
Si25   O109    1.593   .     S
Si25   O110    1.608   .     S
Si25   C111    1.808   .     S
Si25   O147    1.636   .     S
Si26   O112    1.664   .     S
Si26   O113    1.643   .     S
Si26   O114    1.662   .     S
Si26   O163    1.629   .     S
Si27   O114    1.626   .     S
Si27   O125    1.604   .     S
Si27   O121    1.563   1_554 S
Si27   O179    1.577   1_554 S
Si28   O115    1.598   .     S
Si28   O116    1.576   .     S
Si28   O118    1.630   .     S
Si28   O168    1.641   .     S
Si29   C117    1.892   .     S
Si29   O118    1.586   .     S
Si29   C119    1.816   .     S
Si29   O164    1.596   .     S
Si30   O120    1.572   .     S
Si30   O121    1.604   .     S
Si30   C122    1.874   .     S
Si30   C123    1.869   .     S
Si31   C124    1.811   .     S
Si31   O125    1.619   .     S
Si31   C130    1.864   .     S
Si31   O184    1.574   .     S
Si32   C126    1.900   .     S
Si32   C127    1.871   .     S
Si32   O128    1.569   .     S
Si32   C129    1.900   .     S
Si33   C131    1.858   .     S
Si33   O132    1.573   .     S
Si33   O134    1.631   1_554 S
Si33   O195    1.641   1_554 S
Si34   O133    1.592   .     S
Si34   O134    1.612   .     S
Si34   O135    1.591   .     S
Si34   C136    1.884   .     S
Si35   C137    1.854   .     S
Si35   C138    1.884   .     S
Si35   O139    1.614   .     S
Si35   O191    1.586   .     S
Si36   C140    1.810   .     S
Si36   O141    1.595   .     S
Si36   C142    1.867   1_545 S
Si36   O186    1.587   1_545 S
Si37   O143    1.574   .     S
Si37   C144    1.847   .     S
Si37   O149    1.645   .     S
Si37   O159    1.584   .     S
Si38   C146    1.826   .     S
Si38   O147    1.614   .     S
Si38   O156    1.574   .     S
Si38   O165    1.587   .     S
Si39   O148    1.627   .     S
Si39   O149    1.635   .     S
Si39   C150    1.863   .     S
Si39   O166    1.638   .     S
Si40   O151    1.603   .     S
Si40   C152    1.863   .     S
Si40   C153    1.835   .     S
Si40   O154    1.623   .     S
Si41   O155    1.626   .     S
Si41   O156    1.614   .     S
Si41   C157    1.839   .     S
Si41   C158    1.834   .     S
Si42   O159    1.603   .     S
Si42   C160    1.790   .     S
Si42   C161    1.872   .     S
Si42   C162    1.881   .     S
Si43   O163    1.619   .     S
Si43   O164    1.613   .     S
Si43   O173    1.570   .     S
Si43   O180    1.572   .     S
Si44   O165    1.648   .     S
Si44   O166    1.654   .     S
Si44   O167    1.629   .     S
Si44   O174    1.602   .     S
Si45   O168    1.607   .     S
Si45   C169    1.816   .     S
Si45   C170    1.859   .     S
Si45   C171    1.838   .     S
Si46   C172    1.856   .     S
Si46   O173    1.578   .     S
Si46   O174    1.614   .     S
Si46   C175    1.852   .     S
Si47   C176    1.873   .     S
Si47   C177    1.872   .     S
Si47   C178    1.859   .     S
Si47   O179    1.598   .     S
Si48   O180    1.558   .     S
Si48   C181    1.878   .     S
Si48   C182    1.818   .     S
Si48   C183    1.921   .     S
Si49   O184    1.572   .     S
Si49   C185    1.940   .     S
Si49   O186    1.589   .     S
Si49   C187    1.839   .     S
Si50   C188    1.897   .     S
Si50   C189    1.826   .     S
Si50   C190    1.855   .     S
Si50   O191    1.612   .     S
Si51   C192    1.834   .     S
Si51   C193    1.929   .     S
Si51   C194    1.829   .     S
Si51   O195    1.604   .     S
C52    H196    1.086   .     S
C52    H197    1.103   .     S
C52    H198    1.166   .     S
C53    H199    1.093   .     S
C53    H200    1.088   .     S
C53    H201    1.137   .     S
C53    Si1     1.934   1_565 S
C54    H202    1.131   .     S
C54    H203    1.170   .     S
C54    H204    1.149   .     S
C54    Si1     1.760   1_565 S
C55    H205    1.099   .     S
C55    H206    1.079   .     S
C55    H207    1.091   .     S
C55    Si3     1.819   1_565 S
C56    H208    1.136   .     S
C56    H209    1.117   .     S
C56    H210    1.120   .     S
C57    H211    1.104   .     S
C57    H212    1.111   .     S
C57    H213    1.152   .     S
C57    Si4     1.822   1_655 S
C60    H214    1.107   .     S
C60    H215    1.068   .     S
C60    H216    1.099   .     S
C61    H217    1.125   .     S
C61    H218    1.083   .     S
C61    H219    1.075   .     S
C62    H220    1.097   .     S
C62    H221    1.134   .     S
C62    H222    1.128   .     S
C62    Si7     1.842   1_655 S
C63    H223    1.095   .     S
C63    H224    1.111   .     S
C63    H225    1.111   .     S
C63    Si7     1.860   1_655 S
C65    H226    1.152   .     S
C65    H227    1.108   .     S
C65    H228    1.099   .     S
C66    H229    1.072   .     S
C66    H230    1.096   .     S
C66    H231    1.132   .     S
C67    H232    1.118   .     S
C67    H233    1.050   .     S
C67    H234    1.086   .     S
C70    H235    1.133   .     S
C70    H236    1.101   .     S
C70    H237    1.109   .     S
C71    H238    1.092   .     S
C71    H239    1.116   .     S
C71    H240    1.169   .     S
C72    H241    1.134   .     S
C72    H242    1.127   .     S
C72    H243    1.094   .     S
C73    H244    1.142   .     S
C73    H245    1.069   .     S
C73    H246    1.119   .     S
C73    Si10    1.886   1_655 S
C74    H247    1.098   .     S
C74    H248    1.091   .     S
C74    H249    1.073   .     S
C76    H250    1.137   .     S
C76    H251    1.089   .     S
C76    H252    1.112   .     S
C77    H253    1.112   .     S
C77    H254    1.083   .     S
C77    H255    1.103   .     S
C79    H256    1.166   .     S
C79    H257    1.124   .     S
C79    H258    1.065   .     S
C80    H259    1.100   .     S
C80    H260    1.110   .     S
C80    H261    1.105   .     S
C81    H262    1.151   .     S
C81    H263    1.075   .     S
C81    H264    1.113   .     S
C82    H265    1.149   .     S
C82    H266    1.027   .     S
C82    H267    1.117   .     S
C82    Si13    1.884   1_655 S
C83    H268    1.036   .     S
C83    H269    1.121   .     S
C83    H270    1.041   .     S
C83    Si13    1.901   1_655 S
O84    Si3     1.594   1_565 S
C85    H271    1.098   .     S
C85    H272    1.120   .     S
C85    H273    1.093   .     S
C85    Si14    1.832   1_655 S
C86    H274    1.089   .     S
C86    H275    1.146   .     S
C86    H276    1.130   .     S
C86    Si14    1.812   1_655 S
C88    H277    1.056   .     S
C88    H278    1.093   .     S
C88    H279    1.131   .     S
C89    H280    1.141   .     S
C89    H281    1.061   .     S
C89    H282    1.085   .     S
O90    Si6     1.620   1_565 S
C91    H283    1.137   .     S
C91    H284    1.079   .     S
C91    H285    1.095   .     S
C91    Si16    1.877   1_655 S
C92    H286    1.057   .     S
C92    H287    1.101   .     S
C92    H288    1.075   .     S
C92    Si16    1.924   1_655 S
C93    H289    1.086   .     S
C93    H290    1.078   .     S
C93    H291    1.054   .     S
C94    H292    1.116   .     S
C94    H293    1.071   .     S
C94    H294    1.115   .     S
O96    Si6     1.550   1_565 S
C97    H295    1.097   .     S
C97    H296    1.158   .     S
C97    H297    1.076   .     S
C102   H298    1.096   .     S
C102   H299    1.078   .     S
C102   H300    1.087   .     S
C104   H301    1.145   .     S
C104   H302    1.077   .     S
C104   H303    1.107   .     S
O106   Si20    1.574   1_556 S
C107   H304    1.143   .     S
C107   H305    1.111   .     S
C107   H306    1.107   .     S
C108   H307    1.126   .     S
C108   H308    1.098   .     S
C108   H309    1.131   .     S
C111   H310    1.043   .     S
C111   H311    1.116   .     S
C111   H312    1.113   .     S
C117   H313    1.076   .     S
C117   H314    1.134   .     S
C117   H315    1.143   .     S
C119   H316    1.073   .     S
C119   H317    1.083   .     S
C119   H318    1.117   .     S
O121   Si27    1.563   1_556 S
C122   H319    1.094   .     S
C122   H320    1.079   .     S
C122   H321    1.094   .     S
C123   H322    1.136   .     S
C123   H323    1.120   .     S
C123   H324    1.131   .     S
C124   H325    1.098   .     S
C124   H326    1.018   .     S
C124   H327    1.124   .     S
C126   H328    1.143   .     S
C126   H329    1.154   .     S
C126   H330    1.101   .     S
C127   H331    1.092   .     S
C127   H332    1.105   .     S
C127   H333    1.154   .     S
O128   Si18    1.660   1_565 S
C129   H334    1.103   .     S
C129   H335    1.149   .     S
C129   H336    1.119   .     S
C130   H337    1.133   .     S
C130   H338    1.085   .     S
C130   H339    1.093   .     S
C131   H340    1.118   .     S
C131   H341    1.095   .     S
C131   H342    1.067   .     S
O132   Si18    1.619   1_565 S
O134   Si33    1.631   1_556 S
O135   Si23    1.583   1_565 S
C136   H343    1.090   .     S
C136   H344    1.141   .     S
C136   H345    1.058   .     S
C137   H346    1.113   .     S
C137   H347    1.066   .     S
C137   H348    1.146   .     S
C138   H349    1.029   .     S
C138   H350    1.105   .     S
C138   H351    1.162   .     S
O139   Si23    1.632   1_565 S
C140   H352    1.061   .     S
C140   H353    1.141   .     S
C140   H354    1.087   .     S
O141   Si2     1.635   1_655 S
C142   H355    1.087   .     S
C142   H356    1.146   .     S
C142   H357    1.090   .     S
C142   Si36    1.867   1_565 S
C144   H358    1.122   .     S
C144   H359    1.110   .     S
C144   H360    1.106   .     S
C145   H361    1.093   .     S
C145   H362    1.127   .     S
C145   H363    1.161   .     S
C146   H364    1.064   .     S
C146   H365    1.098   .     S
C146   H366    1.108   .     S
O148   Si2     1.643   1_655 S
C150   H367    1.134   .     S
C150   H368    1.116   .     S
C150   H369    1.116   .     S
C152   H370    1.084   .     S
C152   H371    1.130   .     S
C152   H372    1.049   .     S
C153   H373    1.088   .     S
C153   H374    1.049   .     S
C153   H375    1.187   .     S
O154   Si20    1.648   1_556 S
O155   Si4     1.654   1_655 S
C157   H376    1.119   .     S
C157   H377    1.213   .     S
C157   H378    1.157   .     S
C158   H379    1.031   .     S
C158   H380    1.176   .     S
C158   H381    1.099   .     S
C160   H382    1.085   .     S
C160   H383    1.141   .     S
C160   H384    1.118   .     S
C161   H385    1.137   .     S
C161   H386    1.121   .     S
C161   H387    1.117   .     S
C162   H388    1.086   .     S
C162   H389    1.114   .     S
C162   H390    1.136   .     S
O167   Si10    1.594   1_655 S
C169   H391    1.117   .     S
C169   H392    1.080   .     S
C169   H393    1.141   .     S
C170   H394    1.117   .     S
C170   H395    1.135   .     S
C170   H396    1.057   .     S
C171   H397    1.084   .     S
C171   H398    1.039   .     S
C171   H399    1.130   .     S
C172   H400    1.072   .     S
C172   H401    1.086   .     S
C172   H402    1.157   .     S
C175   H403    1.114   .     S
C175   H404    1.136   .     S
C175   H405    1.085   .     S
C176   H406    1.111   .     S
C176   H407    1.118   .     S
C176   H408    1.013   .     S
C177   H409    1.115   .     S
C177   H410    1.050   .     S
C177   H411    1.102   .     S
C178   H412    1.061   .     S
C178   H413    1.084   .     S
C178   H414    1.054   .     S
O179   Si27    1.577   1_556 S
C181   H415    1.106   .     S
C181   H416    1.128   .     S
C181   H417    1.065   .     S
C182   H418    1.070   .     S
C182   H419    1.083   .     S
C182   H420    1.089   .     S
C183   H421    1.070   .     S
C183   H422    1.070   .     S
C183   H423    1.109   .     S
C185   H424    1.132   .     S
C185   H425    1.122   .     S
C185   H426    1.115   .     S
O186   Si36    1.587   1_565 S
C187   H427    1.112   .     S
C187   H428    1.126   .     S
C187   H429    1.083   .     S
C188   H430    1.083   .     S
C188   H431    1.133   .     S
C188   H432    1.106   .     S
C189   H433    1.114   .     S
C189   H434    1.061   .     S
C189   H435    1.195   .     S
C190   H436    1.158   .     S
C190   H437    1.110   .     S
C190   H438    1.143   .     S
C192   H439    1.127   .     S
C192   H440    1.101   .     S
C192   H441    1.101   .     S
C193   H442    1.156   .     S
C193   H443    1.124   .     S
C193   H444    1.157   .     S
C194   H445    1.067   .     S
C194   H446    1.107   .     S
C194   H447    1.109   .     S
O195   Si33    1.641   1_556 S
