data_333-11-11-14-15-30-14
_audit_creation_date              2025-03-07
_audit_creation_method            'Materials Studio'
_symmetry_space_group_name_H-M    'P1'
_symmetry_Int_Tables_number       1
_symmetry_cell_setting            triclinic
loop_
_symmetry_equiv_pos_as_xyz
  x,y,z
_cell_length_a                    15.8786
_cell_length_b                    15.8103
_cell_length_c                    20.9489
_cell_angle_alpha                 99.2917
_cell_angle_beta                  94.2153
_cell_angle_gamma                 113.6267
loop_
_atom_site_label
_atom_site_type_symbol
_atom_site_fract_x
_atom_site_fract_y
_atom_site_fract_z
_atom_site_U_iso_or_equiv
_atom_site_adp_type
_atom_site_occupancy
Si1    Si    0.20152   0.16375  -0.04448   0.00000  Uiso   1.00
Si2    Si    0.19240   0.08171   0.38167   0.00000  Uiso   1.00
Si3    Si   -0.06687   0.09524   0.64291   0.00000  Uiso   1.00
Si4    Si    0.04539   0.15653   0.34732   0.00000  Uiso   1.00
Si5    Si    0.20467   0.00231   0.77672   0.00000  Uiso   1.00
Si6    Si   -0.00685   0.13670   0.91188   0.00000  Uiso   1.00
Si7    Si    0.11471   0.12156   0.72259   0.00000  Uiso   1.00
Si8    Si    0.24569   0.30052   0.08583   0.00000  Uiso   1.00
Si9    Si    0.14493   0.58005  -0.05509   0.00000  Uiso   1.00
Si10   Si    0.21012   0.56050   0.19994   0.00000  Uiso   1.00
Si11   Si    0.10180   0.27082   0.82929   0.00000  Uiso   1.00
Si12   Si   -0.04973   0.42479   0.93046   0.00000  Uiso   1.00
Si13   Si    0.02295   0.83180   0.55645   0.00000  Uiso   1.00
Si14   Si    0.10222   0.85171   0.84995   0.00000  Uiso   1.00
Si15   Si    0.19227   0.85777   0.65126   0.00000  Uiso   1.00
Si16   Si    0.44425   0.01396   0.01786   0.00000  Uiso   1.00
Si17   Si    0.72338   0.29754   0.19539   0.00000  Uiso   1.00
Si18   Si    0.49908   0.17156  -0.05713   0.00000  Uiso   1.00
Si19   Si    0.48460  -0.01927   0.50985   0.00000  Uiso   1.00
Si20   Si    0.51471  -0.00109   0.75246   0.00000  Uiso   1.00
Si21   Si    0.33932   0.18756   0.85682   0.00000  Uiso   1.00
Si22   Si    0.48094   0.14851   0.69167   0.00000  Uiso   1.00
Si23   Si    0.59941   0.30683   0.07832   0.00000  Uiso   1.00
Si24   Si    0.36256   0.49923   0.16363   0.00000  Uiso   1.00
Si25   Si    0.27402   0.45693   0.62308   0.00000  Uiso   1.00
Si26   Si    0.45870   0.50113   0.29947   0.00000  Uiso   1.00
Si27   Si    0.45817   0.32446   0.77868   0.00000  Uiso   1.00
Si28   Si    0.46001   0.47780   0.69174   0.00000  Uiso   1.00
Si29   Si    0.52097   0.68491   0.14347   0.00000  Uiso   1.00
Si30   Si    0.37663   1.01423   0.14555   0.00000  Uiso   1.00
Si31   Si    0.41730   0.61595   0.42003   0.00000  Uiso   1.00
Si32   Si    0.33392   0.82937   0.57106   0.00000  Uiso   1.00
Si33   Si    0.50420   0.92943   0.36767   0.00000  Uiso   1.00
Si34   Si    0.50149   0.69222   0.75252   0.00000  Uiso   1.00
Si35   Si    0.48554   0.81302   0.65116   0.00000  Uiso   1.00
Si36   Si    0.91695   0.13403   0.03781   0.00000  Uiso   1.00
Si37   Si    0.63752   0.12497   0.62513   0.00000  Uiso   1.00
Si38   Si    0.81485  -0.00180   0.80947   0.00000  Uiso   1.00
Si39   Si    0.64506   0.15054   0.86065   0.00000  Uiso   1.00
Si40   Si    0.79408   0.13595   0.72194   0.00000  Uiso   1.00
Si41   Si    0.76299   0.21649   0.52717   0.00000  Uiso   1.00
Si42   Si    0.56008   0.44263   0.58151   0.00000  Uiso   1.00
Si43   Si    0.79917   0.30772   0.81860   0.00000  Uiso   1.00
Si44   Si    0.54797   0.47239   0.90193   0.00000  Uiso   1.00
Si45   Si    0.82869   0.47872   0.75874   0.00000  Uiso   1.00
Si46   Si    0.99412   0.80257   0.11011   0.00000  Uiso   1.00
Si47   Si    0.59214   0.81660   0.28246   0.00000  Uiso   1.00
Si48   Si    1.00459   0.83292  -0.02821   0.00000  Uiso   1.00
Si49   Si    0.57182   0.74709   0.53692   0.00000  Uiso   1.00
Si50   Si    0.76269   0.79051   0.34065   0.00000  Uiso   1.00
Si51   Si    0.66357   0.83927   0.86067   0.00000  Uiso   1.00
C52    C     0.23609   0.07796  -0.00969   0.00000  Uiso   1.00
C53    C     0.23181   0.14835   0.46632   0.00000  Uiso   1.00
C54    C     0.29732   1.13486   0.34102   0.00000  Uiso   1.00
C55    C    -0.00802   0.17368   0.58689   0.00000  Uiso   1.00
C56    C     0.85300  -0.02441   0.59802   0.00000  Uiso   1.00
C57    C    -0.05151   0.11370   0.27848   0.00000  Uiso   1.00
O58    O     0.10111   0.09337   0.35217   0.00000  Uiso   1.00
C59    C    -0.00042   0.16988   0.42588   0.00000  Uiso   1.00
O60    O     0.08683   0.12006   0.93595   0.00000  Uiso   1.00
O61    O     0.00807   0.08513   0.69094   0.00000  Uiso   1.00
O62    O     0.13428   0.03617   0.74101   0.00000  Uiso   1.00
C63    C     0.19741   0.18790   0.66978   0.00000  Uiso   1.00
C64    C     0.23929   0.22078   0.14291   0.00000  Uiso   1.00
O65    O     0.25013   0.25620   0.01568   0.00000  Uiso   1.00
C66    C     0.14384   0.32530   0.08284   0.00000  Uiso   1.00
C67    C     0.21254   0.56272   0.01074   0.00000  Uiso   1.00
C68    C     0.12012   0.68245  -0.01957   0.00000  Uiso   1.00
C69    C     0.21207   0.60539   0.87132   0.00000  Uiso   1.00
C70    C     0.09092   0.53375   0.15821   0.00000  Uiso   1.00
C71    C     0.19923   0.50444   0.26986   0.00000  Uiso   1.00
C72    C     0.27491   0.68786   0.22400   0.00000  Uiso   1.00
O73    O     0.02559   0.21811   0.87191   0.00000  Uiso   1.00
O74    O     0.13475   0.19982   0.78653   0.00000  Uiso   1.00
C75    C     0.05286   0.33300   0.78063   0.00000  Uiso   1.00
C76    C     0.20328   0.35638   0.88810   0.00000  Uiso   1.00
O77    O     0.04657   0.49398   0.91288   0.00000  Uiso   1.00
C78    C    -0.11229   0.49461   0.96406   0.00000  Uiso   1.00
C79    C     0.97029   0.37019   0.99624   0.00000  Uiso   1.00
C80    C     0.02304   0.93184   0.52383   0.00000  Uiso   1.00
C81    C     0.16707   0.95319   0.37082   0.00000  Uiso   1.00
C82    C     0.91722   0.75539   0.59123   0.00000  Uiso   1.00
C83    C     1.04526   0.76370   0.48658   0.00000  Uiso   1.00
C84    C     0.16687   0.77941   0.83186   0.00000  Uiso   1.00
O85    O     0.16560   0.94794   0.83211   0.00000  Uiso   1.00
C86    C     0.98919   0.81109   0.79465   0.00000  Uiso   1.00
O87    O     0.11516   0.87498   0.61106   0.00000  Uiso   1.00
C88    C     0.14263   0.73506   0.66266   0.00000  Uiso   1.00
O89    O     0.22611   0.93378   0.72178   0.00000  Uiso   1.00
C90    C     0.55966   0.02246   0.03854   0.00000  Uiso   1.00
C91    C     0.36275   0.88919  -0.01438   0.00000  Uiso   1.00
C92    C     0.73288   0.18955   0.21947   0.00000  Uiso   1.00
C93    C     0.83711   0.38017   0.18360   0.00000  Uiso   1.00
C94    C     0.68880   0.36419   0.25998   0.00000  Uiso   1.00
C95    C     0.13439   0.27740   0.33844   0.00000  Uiso   1.00
O96    O     0.44254   0.07677  -0.03365   0.00000  Uiso   1.00
C97    C     0.44403   0.06774   0.48705   0.00000  Uiso   1.00
C98    C     0.43524   0.93070   0.80478   0.00000  Uiso   1.00
O99    O     0.30356   0.09038   0.80761   0.00000  Uiso   1.00
O100   O     0.42591   0.20419   0.90930   0.00000  Uiso   1.00
O101   O     0.25366   0.18690   0.89582   0.00000  Uiso   1.00
C102   C     0.37503   0.10812   0.62972   0.00000  Uiso   1.00
O103   O     0.46438   0.05628   0.72264   0.00000  Uiso   1.00
O104   O     0.65594   0.26477   0.12372   0.00000  Uiso   1.00
O105   O     0.57375   0.25073   0.00334   0.00000  Uiso   1.00
C106   C     0.49129   0.29877   0.11330   0.00000  Uiso   1.00
C107   C     0.66788   0.43374   0.08290   0.00000  Uiso   1.00
O108   O     0.33681   0.40039   0.11724   0.00000  Uiso   1.00
O109   O     0.27424   0.52431   0.15587   0.00000  Uiso   1.00
C110   C     0.19610   0.35220   0.55601   0.00000  Uiso   1.00
C111   C     0.20906   0.44202   0.69270   0.00000  Uiso   1.00
O112   O     0.38375   0.49658   0.24035   0.00000  Uiso   1.00
C113   C     0.43271   0.38222   0.31779   0.00000  Uiso   1.00
C114   C     0.57255   0.53207   0.27036   0.00000  Uiso   1.00
O115   O     0.37079   0.26658   0.81246   0.00000  Uiso   1.00
O116   O     0.49260   0.24520   0.74278   0.00000  Uiso   1.00
O117   O     0.37419   0.46106   0.63958   0.00000  Uiso   1.00
O118   O     0.43066   0.38740   0.73037   0.00000  Uiso   1.00
O119   O     0.45082   0.57408   0.13974   0.00000  Uiso   1.00
C120   C     0.63165   0.68921   0.11770   0.00000  Uiso   1.00
C121   C     0.45928   0.72458   0.08726   0.00000  Uiso   1.00
C122   C     0.43312   1.12223   0.21013   0.00000  Uiso   1.00
O123   O     0.40808   1.04541   0.07946   0.00000  Uiso   1.00
C124   C     0.42453   0.92929   0.16743   0.00000  Uiso   1.00
C125   C     0.28134   0.57538   0.60892   0.00000  Uiso   1.00
C126   C     0.31358   0.51139   0.43297   0.00000  Uiso   1.00
O127   O     0.47157   0.57465   0.36786   0.00000  Uiso   1.00
C128   C     0.24619   0.72408   0.50928   0.00000  Uiso   1.00
O129   O     0.40177   0.89905   0.52903   0.00000  Uiso   1.00
O130   O     0.27679   0.87659   0.61187   0.00000  Uiso   1.00
C131   C     0.25397   0.97413   0.14950   0.00000  Uiso   1.00
C132   C     0.58289   1.04766   0.34967   0.00000  Uiso   1.00
C133   C     0.37667   0.69474   0.38658   0.00000  Uiso   1.00
C134   C     0.37800   0.89421   0.33953   0.00000  Uiso   1.00
O135   O     0.51463   0.93895   0.44557   0.00000  Uiso   1.00
C136   C     0.40641   0.69302   0.80136   0.00000  Uiso   1.00
O137   O     0.49876   0.58667   0.73963   0.00000  Uiso   1.00
O138   O     0.38343   0.79319   0.62044   0.00000  Uiso   1.00
O139   O     0.48528   0.72930   0.68752   0.00000  Uiso   1.00
O140   O     0.53095   0.91819   0.69871   0.00000  Uiso   1.00
O141   O     0.95237   0.16467   0.97300   0.00000  Uiso   1.00
C142   C     1.00870   0.11716   0.08722   0.00000  Uiso   1.00
C143   C     0.89492   0.22353   0.09172   0.00000  Uiso   1.00
O144   O     0.56676   0.02922   0.56761   0.00000  Uiso   1.00
O145   O     0.57379   0.16870   0.66181   0.00000  Uiso   1.00
O146   O     0.91127   0.04558   0.86069   0.00000  Uiso   1.00
C147   C     0.81734   0.90624   0.74331   0.00000  Uiso   1.00
O148   O     0.60811   0.06948   0.79610   0.00000  Uiso   1.00
C149   C     0.72173   0.12308   0.91966   0.00000  Uiso   1.00
C150   C     0.81566   0.02138   1.02181   0.00000  Uiso   1.00
O151   O     0.55587   0.15012   0.88868   0.00000  Uiso   1.00
O152   O     0.87281   0.14200   0.67994   0.00000  Uiso   1.00
O153   O     0.69786   0.09728   0.67431   0.00000  Uiso   1.00
O154   O     0.79118   0.07395   0.77820   0.00000  Uiso   1.00
O155   O     0.70856   0.20103   0.58949   0.00000  Uiso   1.00
C156   C     0.75939   0.09966   0.48734   0.00000  Uiso   1.00
C157   C     0.70739   0.26735   0.46930   0.00000  Uiso   1.00
C158   C     0.88924   0.31453   0.55355   0.00000  Uiso   1.00
C159   C     0.49304   0.46799   0.51945   0.00000  Uiso   1.00
C160   C     0.68692   0.50292   0.57536   0.00000  Uiso   1.00
O161   O     0.54175   0.47623   0.65174   0.00000  Uiso   1.00
O162   O     0.70764   0.24895   0.84573   0.00000  Uiso   1.00
O163   O     0.81029   0.24063   0.75626   0.00000  Uiso   1.00
O164   O     0.89050   0.34142   0.87180   0.00000  Uiso   1.00
O165   O     0.53278   0.39638   0.83876   0.00000  Uiso   1.00
C166   C     0.47516   0.41950   0.96326   0.00000  Uiso   1.00
C167   C     0.67079   0.53325   0.93804   0.00000  Uiso   1.00
C168   C     0.50357   0.55918   0.88283   0.00000  Uiso   1.00
C169   C     0.95235   0.54289   0.77931   0.00000  Uiso   1.00
C170   C     0.52181   0.31517   0.57024   0.00000  Uiso   1.00
C171   C     0.80762   0.41165   0.67180   0.00000  Uiso   1.00
O172   O     0.79017   0.39887   0.80019   0.00000  Uiso   1.00
C173   C     0.76589   0.55443   0.76114   0.00000  Uiso   1.00
C174   C     0.87219   0.71717   0.09532   0.00000  Uiso   1.00
C175   C     1.05330   0.75322   0.16083   0.00000  Uiso   1.00
C176   C     1.00251   0.91682   0.16575   0.00000  Uiso   1.00
O177   O     0.52949   0.73665   0.21881   0.00000  Uiso   1.00
C178   C     0.66648   0.92238   0.25233   0.00000  Uiso   1.00
O179   O     0.52932   0.84606   0.33231   0.00000  Uiso   1.00
O180   O     1.08767   0.86644   0.92587   0.00000  Uiso   1.00
O181   O     1.03713   0.82838   0.04472   0.00000  Uiso   1.00
C182   C     0.94870   0.91515  -0.02046   0.00000  Uiso   1.00
O183   O     0.48058   0.66768   0.49070   0.00000  Uiso   1.00
C184   C     0.65119   0.70457   0.57678   0.00000  Uiso   1.00
C185   C     0.64322   0.83562   0.48793   0.00000  Uiso   1.00
O186   O     0.54033   0.80679   0.59149   0.00000  Uiso   1.00
C187   C     0.80502   0.76222   0.26219   0.00000  Uiso   1.00
O188   O     0.65907   0.78105   0.31933   0.00000  Uiso   1.00
C189   C     0.75586   0.70564   0.39122   0.00000  Uiso   1.00
C190   C     0.83628   0.91525   0.38070   0.00000  Uiso   1.00
O191   O     0.60118   0.76944   0.79272   0.00000  Uiso   1.00
C192   C     0.73177   0.77789   0.88532   0.00000  Uiso   1.00
C193   C     0.91735   0.71578   0.92751   0.00000  Uiso   1.00
O194   O     0.73325   0.94020   0.84718   0.00000  Uiso   1.00
C195   C     0.59428   0.85054   0.92870   0.00000  Uiso   1.00
H196   H     0.25900   0.02985  -0.04311   0.00000  Uiso   1.00
H197   H     0.17446   0.02807   0.01122   0.00000  Uiso   1.00
H198   H     0.29703   0.12436   0.02859   0.00000  Uiso   1.00
H199   H     0.30307   0.15489   0.48457   0.00000  Uiso   1.00
H200   H     0.18005   0.11527   0.49701   0.00000  Uiso   1.00
H201   H     0.23983   0.21932   0.46389   0.00000  Uiso   1.00
H202   H     0.27816   1.08804   0.29360   0.00000  Uiso   1.00
H203   H     0.35973   1.14395   0.36924   0.00000  Uiso   1.00
H204   H     0.30654   1.20724   0.33911   0.00000  Uiso   1.00
H205   H    -0.05912   0.17639   0.55223   0.00000  Uiso   1.00
H206   H     0.02927   0.14106   0.56167   0.00000  Uiso   1.00
H207   H     0.03853   0.24605   0.61588   0.00000  Uiso   1.00
H208   H     0.85139  -0.02725   0.54591   0.00000  Uiso   1.00
H209   H     0.78054  -0.04008   0.61264   0.00000  Uiso   1.00
H210   H     0.87663  -0.08058   0.60844   0.00000  Uiso   1.00
H211   H    -0.08745   0.03266   0.26868   0.00000  Uiso   1.00
H212   H    -0.02429   0.12624   0.23498   0.00000  Uiso   1.00
H213   H    -0.10367   0.14369   0.28955   0.00000  Uiso   1.00
H214   H    -0.02583   0.10281   0.44426   0.00000  Uiso   1.00
H215   H    -0.05146   0.20423   0.42096   0.00000  Uiso   1.00
H216   H     0.06229   0.21823   0.46232   0.00000  Uiso   1.00
H217   H     0.16762   0.23922   0.66234   0.00000  Uiso   1.00
H218   H     0.21037   0.15180   0.62482   0.00000  Uiso   1.00
H219   H     0.26708   0.22827   0.69927   0.00000  Uiso   1.00
H220   H     0.22183   0.15073   0.11464   0.00000  Uiso   1.00
H221   H     0.19164   0.21724   0.17895   0.00000  Uiso   1.00
H222   H     0.30653   0.25213   0.17293   0.00000  Uiso   1.00
H223   H     0.16563   0.39379   0.07068   0.00000  Uiso   1.00
H224   H     0.12159   0.32617   0.13575   0.00000  Uiso   1.00
H225   H     0.09329   0.26627   0.04170   0.00000  Uiso   1.00
H226   H     0.22920   0.62283   0.05137   0.00000  Uiso   1.00
H227   H     0.26951   0.55023  -0.01149   0.00000  Uiso   1.00
H228   H     0.16730   0.49257   0.02008   0.00000  Uiso   1.00
H229   H     0.09126   0.69948  -0.06230   0.00000  Uiso   1.00
H230   H     0.17816   0.74864   0.00130   0.00000  Uiso   1.00
H231   H     0.06734   0.66573   0.01231   0.00000  Uiso   1.00
H232   H     0.16558   0.58750   0.82326   0.00000  Uiso   1.00
H233   H     0.24655   0.55696   0.86299   0.00000  Uiso   1.00
H234   H     0.26767   0.67684   0.87729   0.00000  Uiso   1.00
H235   H     0.04476   0.45950   0.15685   0.00000  Uiso   1.00
H236   H     0.10128   0.54946   0.10890   0.00000  Uiso   1.00
H237   H     0.06945   0.58935   0.18773   0.00000  Uiso   1.00
H238   H     0.26267   0.52589   0.30343   0.00000  Uiso   1.00
H239   H     0.16869   0.42848   0.25041   0.00000  Uiso   1.00
H240   H     0.15246   0.52429   0.30241   0.00000  Uiso   1.00
H241   H     0.26795   0.70694   0.27840   0.00000  Uiso   1.00
H242   H     0.25091   0.73413   0.20011   0.00000  Uiso   1.00
H243   H     0.35232   0.71057   0.22752   0.00000  Uiso   1.00
H244   H     0.04689   0.29872   0.72955   0.00000  Uiso   1.00
H245   H     0.09101   0.40625   0.79201   0.00000  Uiso   1.00
H246   H    -0.01681   0.31170   0.79280   0.00000  Uiso   1.00
H247   H     0.26942   0.37435   0.86880   0.00000  Uiso   1.00
H248   H     0.20177   0.32604   0.93082   0.00000  Uiso   1.00
H249   H     0.20334   0.42428   0.90612   0.00000  Uiso   1.00
H250   H    -0.17281   0.44133   0.98356   0.00000  Uiso   1.00
H251   H    -0.13857   0.51797   0.92397   0.00000  Uiso   1.00
H252   H    -0.07008   0.55429   1.00534   0.00000  Uiso   1.00
H253   H     0.99604   0.42026   1.04184   0.00000  Uiso   1.00
H254   H     1.01825   0.34100   0.98397   0.00000  Uiso   1.00
H255   H     0.90387   0.31890   0.99833   0.00000  Uiso   1.00
H256   H     0.02783   0.98682   0.56495   0.00000  Uiso   1.00
H257   H    -0.03680   0.89846   0.48250   0.00000  Uiso   1.00
H258   H     0.08869   0.95964   0.50282   0.00000  Uiso   1.00
H259   H     0.20281   0.93521   0.32930   0.00000  Uiso   1.00
H260   H     0.09022   0.90281   0.35655   0.00000  Uiso   1.00
H261   H     0.19116   0.93878   0.41368   0.00000  Uiso   1.00
H262   H     0.92202   0.79711   0.64359   0.00000  Uiso   1.00
H263   H     0.91658   0.68193   0.58731   0.00000  Uiso   1.00
H264   H     0.85469   0.74533   0.55976   0.00000  Uiso   1.00
H265   H     1.11934   0.80627   0.48160   0.00000  Uiso   1.00
H266   H     1.00624   0.76041   0.43945   0.00000  Uiso   1.00
H267   H     1.03463   0.69138   0.49341   0.00000  Uiso   1.00
H268   H     0.11461   0.70320   0.81333   0.00000  Uiso   1.00
H269   H     0.21915   0.79511   0.87771   0.00000  Uiso   1.00
H270   H     0.21529   0.80619   0.79545   0.00000  Uiso   1.00
H271   H     0.94277   0.73749   0.78892   0.00000  Uiso   1.00
H272   H     1.00951   0.81019   0.74482   0.00000  Uiso   1.00
H273   H     0.95126   0.85341   0.81022   0.00000  Uiso   1.00
H274   H     0.20618   0.72586   0.67579   0.00000  Uiso   1.00
H275   H     0.09638   0.67542   0.61499   0.00000  Uiso   1.00
H276   H     0.09490   0.72393   0.69842   0.00000  Uiso   1.00
H277   H     0.59257   0.06948   0.08692   0.00000  Uiso   1.00
H278   H     0.60518   0.05169   0.00223   0.00000  Uiso   1.00
H279   H     0.55470  -0.04767   0.04629   0.00000  Uiso   1.00
H280   H     0.35467   0.85516   0.02697   0.00000  Uiso   1.00
H281   H     0.38509   0.84780  -0.04898   0.00000  Uiso   1.00
H282   H     0.29745   0.89131  -0.03392   0.00000  Uiso   1.00
H283   H     0.79612   0.21577   0.25728   0.00000  Uiso   1.00
H284   H     0.72858   0.13214   0.18027   0.00000  Uiso   1.00
H285   H     0.67106   0.16894   0.24174   0.00000  Uiso   1.00
H286   H     0.85564   0.36260   0.13337   0.00000  Uiso   1.00
H287   H     0.88295   0.37860   0.22520   0.00000  Uiso   1.00
H288   H     0.83304   0.44611   0.19282   0.00000  Uiso   1.00
H289   H     0.70158   0.43407   0.25040   0.00000  Uiso   1.00
H290   H     0.73188   0.37211   0.30769   0.00000  Uiso   1.00
H291   H     0.61078   0.31797   0.25753   0.00000  Uiso   1.00
H292   H     0.17016   0.26293   0.29600   0.00000  Uiso   1.00
H293   H     0.18035   0.31133   0.38515   0.00000  Uiso   1.00
H294   H     0.09931   0.31869   0.32284   0.00000  Uiso   1.00
H295   H     0.47898   0.13302   0.52501   0.00000  Uiso   1.00
H296   H     0.37132   0.04350   0.48306   0.00000  Uiso   1.00
H297   H     0.45916   0.07972   0.43820   0.00000  Uiso   1.00
H298   H     0.47886   0.90658   0.83836   0.00000  Uiso   1.00
H299   H     0.37847   0.86960   0.76923   0.00000  Uiso   1.00
H300   H     0.40967   0.98118   0.83184   0.00000  Uiso   1.00
H301   H     0.37052   0.04379   0.60138   0.00000  Uiso   1.00
H302   H     0.37831   0.16705   0.60605   0.00000  Uiso   1.00
H303   H     0.31341   0.08949   0.65332   0.00000  Uiso   1.00
H304   H     0.51556   0.35346   0.15907   0.00000  Uiso   1.00
H305   H     0.43849   0.22595   0.11453   0.00000  Uiso   1.00
H306   H     0.44991   0.32197   0.07863   0.00000  Uiso   1.00
H307   H     0.67127   0.46687   0.13221   0.00000  Uiso   1.00
H308   H     0.62919   0.45579   0.04865   0.00000  Uiso   1.00
H309   H     0.73517   0.44561   0.06411   0.00000  Uiso   1.00
H310   H     0.20603   0.29017   0.56759   0.00000  Uiso   1.00
H311   H     0.22429   0.36238   0.50958   0.00000  Uiso   1.00
H312   H     0.12152   0.33933   0.55015   0.00000  Uiso   1.00
H313   H     0.23459   0.51706   0.72339   0.00000  Uiso   1.00
H314   H     0.22982   0.39632   0.71553   0.00000  Uiso   1.00
H315   H     0.13229   0.40600   0.67207   0.00000  Uiso   1.00
H316   H     0.37727   0.36496   0.34878   0.00000  Uiso   1.00
H317   H     0.49742   0.38615   0.34619   0.00000  Uiso   1.00
H318   H     0.41697   0.32942   0.27308   0.00000  Uiso   1.00
H319   H     0.61411   0.60797   0.28589   0.00000  Uiso   1.00
H320   H     0.56899   0.49949   0.21850   0.00000  Uiso   1.00
H321   H     0.60680   0.49927   0.30081   0.00000  Uiso   1.00
H322   H     0.62167   0.66191   0.06198   0.00000  Uiso   1.00
H323   H     0.65397   0.64167   0.13929   0.00000  Uiso   1.00
H324   H     0.68952   0.76491   0.12251   0.00000  Uiso   1.00
H325   H     0.41948   0.66500   0.04199   0.00000  Uiso   1.00
H326   H     0.51160   0.79396   0.07793   0.00000  Uiso   1.00
H327   H     0.40035   0.73380   0.10931   0.00000  Uiso   1.00
H328   H     0.41022   1.17936   0.20788   0.00000  Uiso   1.00
H329   H     0.50729   1.15564   0.20177   0.00000  Uiso   1.00
H330   H     0.43318   1.10091   0.25687   0.00000  Uiso   1.00
H331   H     0.36167   0.85994   0.15623   0.00000  Uiso   1.00
H332   H     0.44953   0.94519   0.21931   0.00000  Uiso   1.00
H333   H     0.47529   0.92595   0.13524   0.00000  Uiso   1.00
H334   H     0.30667   0.63599   0.65300   0.00000  Uiso   1.00
H335   H     0.21058   0.56354   0.58290   0.00000  Uiso   1.00
H336   H     0.33268   0.60058   0.57568   0.00000  Uiso   1.00
H337   H     0.24815   0.51260   0.41389   0.00000  Uiso   1.00
H338   H     0.30812   0.50851   0.48358   0.00000  Uiso   1.00
H339   H     0.32117   0.45068   0.41039   0.00000  Uiso   1.00
H340   H     0.27253   0.67214   0.49655   0.00000  Uiso   1.00
H341   H     0.23816   0.75420   0.46623   0.00000  Uiso   1.00
H342   H     0.17452   0.69686   0.52042   0.00000  Uiso   1.00
H343   H     0.23714   0.96946   0.20057   0.00000  Uiso   1.00
H344   H     0.22761   0.89837   0.12182   0.00000  Uiso   1.00
H345   H     0.22762   1.01501   0.12196   0.00000  Uiso   1.00
H346   H     0.56997   1.05009   0.29623   0.00000  Uiso   1.00
H347   H     0.65661   1.05678   0.35608   0.00000  Uiso   1.00
H348   H     0.56462   1.09984   0.38060   0.00000  Uiso   1.00
H349   H     0.41020   0.71566   0.34365   0.00000  Uiso   1.00
H350   H     0.39399   0.76336   0.42183   0.00000  Uiso   1.00
H351   H     0.30141   0.65426   0.37340   0.00000  Uiso   1.00
H352   H     0.35689   0.86519   0.28903   0.00000  Uiso   1.00
H353   H     0.36172   0.95049   0.35193   0.00000  Uiso   1.00
H354   H     0.33980   0.84685   0.37167   0.00000  Uiso   1.00
H355   H     0.36984   0.61850   0.80767   0.00000  Uiso   1.00
H356   H     0.35817   0.71737   0.77454   0.00000  Uiso   1.00
H357   H     0.42487   0.73895   0.85079   0.00000  Uiso   1.00
H358   H     1.06876   0.12739   0.06131   0.00000  Uiso   1.00
H359   H     0.97514   0.04147   0.09332   0.00000  Uiso   1.00
H360   H     1.02659   0.15913   0.13644   0.00000  Uiso   1.00
H361   H     0.89020   0.20502   0.13972   0.00000  Uiso   1.00
H362   H     0.83893   0.23773   0.07153   0.00000  Uiso   1.00
H363   H     0.95410   0.29181   0.09890   0.00000  Uiso   1.00
H364   H     0.76463   0.88881   0.69989   0.00000  Uiso   1.00
H365   H     0.79916   0.83722   0.75693   0.00000  Uiso   1.00
H366   H     0.88662   0.93205   0.72270   0.00000  Uiso   1.00
H367   H     0.69686   0.04323   0.91964   0.00000  Uiso   1.00
H368   H     0.72184   0.16106   0.96794   0.00000  Uiso   1.00
H369   H     0.79099   0.14540   0.90554   0.00000  Uiso   1.00
H370   H     0.81751  -0.01624   1.06331   0.00000  Uiso   1.00
H371   H     0.81271  -0.01993   0.97199   0.00000  Uiso   1.00
H372   H     0.75480   0.03966   1.02963   0.00000  Uiso   1.00
H373   H     0.80178   0.11171   0.44849   0.00000  Uiso   1.00
H374   H     0.68529   0.04834   0.46916   0.00000  Uiso   1.00
H375   H     0.78255   0.07015   0.52775   0.00000  Uiso   1.00
H376   H     0.63469   0.23665   0.46882   0.00000  Uiso   1.00
H377   H     0.72901   0.25243   0.41980   0.00000  Uiso   1.00
H378   H     0.73371   0.34542   0.49100   0.00000  Uiso   1.00
H379   H     0.93214   0.30233   0.52090   0.00000  Uiso   1.00
H380   H     0.91448   0.31156   0.60384   0.00000  Uiso   1.00
H381   H     0.88897   0.38488   0.55371   0.00000  Uiso   1.00
H382   H     0.51280   0.45881   0.46817   0.00000  Uiso   1.00
H383   H     0.50111   0.54103   0.53957   0.00000  Uiso   1.00
H384   H     0.42123   0.42650   0.52037   0.00000  Uiso   1.00
H385   H     0.71572   0.45096   0.57137   0.00000  Uiso   1.00
H386   H     0.72400   0.56587   0.61322   0.00000  Uiso   1.00
H387   H     0.69437   0.51785   0.52675   0.00000  Uiso   1.00
H388   H     0.39703   0.37918   0.94358   0.00000  Uiso   1.00
H389   H     0.48355   0.47219   1.00562   0.00000  Uiso   1.00
H390   H     0.49626   0.36458   0.97469   0.00000  Uiso   1.00
H391   H     0.68560   0.58023   0.98706   0.00000  Uiso   1.00
H392   H     0.70901   0.58099   0.90873   0.00000  Uiso   1.00
H393   H     0.70079   0.48242   0.94595   0.00000  Uiso   1.00
H394   H     0.44260   0.52679   0.84533   0.00000  Uiso   1.00
H395   H     0.55388   0.61769   0.86321   0.00000  Uiso   1.00
H396   H     0.48412   0.59067   0.92684   0.00000  Uiso   1.00
H397   H     0.97806   0.59832   0.74931   0.00000  Uiso   1.00
H398   H     0.97855   0.48660   0.76666   0.00000  Uiso   1.00
H399   H     0.97183   0.57268   0.83318   0.00000  Uiso   1.00
H400   H     0.44185   0.27934   0.55555   0.00000  Uiso   1.00
H401   H     0.54147   0.29264   0.61323   0.00000  Uiso   1.00
H402   H     0.54782   0.28956   0.52851   0.00000  Uiso   1.00
H403   H     0.84033   0.36161   0.67469   0.00000  Uiso   1.00
H404   H     0.83364   0.46475   0.64235   0.00000  Uiso   1.00
H405   H     0.73261   0.37057   0.65695   0.00000  Uiso   1.00
H406   H     0.76817   0.58554   0.81418   0.00000  Uiso   1.00
H407   H     0.69455   0.51551   0.74075   0.00000  Uiso   1.00
H408   H     0.80300   0.61350   0.73779   0.00000  Uiso   1.00
H409   H     0.86969   0.65031   0.06386   0.00000  Uiso   1.00
H410   H     0.82061   0.73521   0.07126   0.00000  Uiso   1.00
H411   H     0.85043   0.69980   0.14250   0.00000  Uiso   1.00
H412   H     1.00055   0.70641   0.18581   0.00000  Uiso   1.00
H413   H     1.10765   0.81042   0.19458   0.00000  Uiso   1.00
H414   H     1.07959   0.71482   0.12229   0.00000  Uiso   1.00
H415   H     0.99372   0.90316   0.21407   0.00000  Uiso   1.00
H416   H     0.94477   0.93143   0.14727   0.00000  Uiso   1.00
H417   H     1.06740   0.96993   0.16786   0.00000  Uiso   1.00
H418   H     0.70771   0.90010   0.21984   0.00000  Uiso   1.00
H419   H     0.71810   0.98613   0.28763   0.00000  Uiso   1.00
H420   H     0.62301   0.94448   0.21955   0.00000  Uiso   1.00
H421   H     0.89523   0.89433   0.00781   0.00000  Uiso   1.00
H422   H     0.91231   0.91838  -0.06930   0.00000  Uiso   1.00
H423   H     1.01150   0.98280  -0.00398   0.00000  Uiso   1.00
H424   H     0.71684   0.76520   0.60001   0.00000  Uiso   1.00
H425   H     0.65986   0.65690   0.53649   0.00000  Uiso   1.00
H426   H     0.62248   0.66688   0.61407   0.00000  Uiso   1.00
H427   H     0.60289   0.82349   0.44185   0.00000  Uiso   1.00
H428   H     0.70852   0.83498   0.47865   0.00000  Uiso   1.00
H429   H     0.65578   0.90765   0.50680   0.00000  Uiso   1.00
H430   H     0.77973   0.78819   0.22219   0.00000  Uiso   1.00
H431   H     0.78486   0.68507   0.24556   0.00000  Uiso   1.00
H432   H     0.88003   0.79197   0.27320   0.00000  Uiso   1.00
H433   H     0.69863   0.69356   0.41929   0.00000  Uiso   1.00
H434   H     0.81731   0.73938   0.43121   0.00000  Uiso   1.00
H435   H     0.75928   0.64084   0.36513   0.00000  Uiso   1.00
H436   H     0.91290   0.92698   0.38216   0.00000  Uiso   1.00
H437   H     0.82950   0.93118   0.43299   0.00000  Uiso   1.00
H438   H     0.82255   0.96352   0.35673   0.00000  Uiso   1.00
H439   H     0.74184   0.78204   0.94081   0.00000  Uiso   1.00
H440   H     0.79779   0.81015   0.86597   0.00000  Uiso   1.00
H441   H     0.69798   0.70156   0.86360   0.00000  Uiso   1.00
H442   H     0.86390   0.69113   0.95798   0.00000  Uiso   1.00
H443   H     0.94371   0.66346   0.91432   0.00000  Uiso   1.00
H444   H     0.87327   0.71651   0.88305   0.00000  Uiso   1.00
H445   H     0.54021   0.78231   0.93114   0.00000  Uiso   1.00
H446   H     0.56426   0.90077   0.92392   0.00000  Uiso   1.00
H447   H     0.64510   0.87424   0.97713   0.00000  Uiso   1.00
loop_
_geom_bond_atom_site_label_1
_geom_bond_atom_site_label_2
_geom_bond_distance
_geom_bond_site_symmetry_2
_ccdc_geom_bond_type
Si1    C52     1.879   .     S
Si1    O65     1.637   .     S
Si1    O60     1.659   1_554 S
Si1    O101    1.562   1_554 S
Si2    C53     1.831   .     S
Si2    O58     1.624   .     S
Si2    C54     1.877   1_545 S
Si2    C81     1.877   1_545 S
Si3    C55     1.868   .     S
Si3    O61     1.575   .     S
Si3    C56     1.844   1_455 S
Si3    O152    1.599   1_455 S
Si4    C57     1.852   .     S
Si4    O58     1.587   .     S
Si4    C59     1.863   .     S
Si4    C95     1.916   .     S
Si5    O62     1.607   .     S
Si5    O99     1.622   .     S
Si5    O85     1.572   1_545 S
Si5    O89     1.602   1_545 S
Si6    O60     1.668   .     S
Si6    O73     1.582   .     S
Si6    O141    1.556   1_455 S
Si6    O146    1.646   1_455 S
Si7    O61     1.603   .     S
Si7    O62     1.598   .     S
Si7    C63     1.879   .     S
Si7    O74     1.585   .     S
Si8    C64     1.852   .     S
Si8    O65     1.542   .     S
Si8    C66     1.809   .     S
Si8    O108    1.647   .     S
Si9    C67     1.808   .     S
Si9    C68     1.869   .     S
Si9    C69     1.942   1_554 S
Si9    O77     1.609   1_554 S
Si10   C70     1.876   .     S
Si10   C71     1.815   .     S
Si10   C72     1.817   .     S
Si10   O109    1.628   .     S
Si11   O73     1.596   .     S
Si11   O74     1.597   .     S
Si11   C75     1.852   .     S
Si11   C76     1.835   .     S
Si12   O77     1.595   .     S
Si12   C78     1.852   .     S
Si12   C79     1.812   1_455 S
Si12   O164    1.566   1_455 S
Si13   C80     1.821   .     S
Si13   O87     1.618   .     S
Si13   C82     1.910   1_455 S
Si13   C83     1.817   1_455 S
Si14   C84     1.833   .     S
Si14   O85     1.574   .     S
Si14   C86     1.872   1_455 S
Si14   O180    1.617   1_455 S
Si15   O87     1.572   .     S
Si15   C88     1.842   .     S
Si15   O89     1.646   .     S
Si15   O130    1.579   .     S
Si16   C90     1.797   .     S
Si16   O96     1.586   .     S
Si16   C91     1.849   1_545 S
Si16   O123    1.540   1_545 S
Si17   C92     1.915   .     S
Si17   C93     1.819   .     S
Si17   C94     1.832   .     S
Si17   O104    1.654   .     S
Si18   O96     1.587   .     S
Si18   O105    1.629   .     S
Si18   O100    1.609   1_554 S
Si18   O151    1.577   1_554 S
Si19   C97     1.847   .     S
Si19   O144    1.556   .     S
Si19   O129    1.563   1_545 S
Si19   O135    1.593   1_545 S
Si20   O103    1.594   .     S
Si20   O148    1.557   .     S
Si20   C98     1.858   1_545 S
Si20   O140    1.675   1_545 S
Si21   O99     1.565   .     S
Si21   O100    1.601   .     S
Si21   O101    1.635   .     S
Si21   O115    1.618   .     S
Si22   C102    1.863   .     S
Si22   O103    1.625   .     S
Si22   O116    1.653   .     S
Si22   O145    1.578   .     S
Si23   O104    1.646   .     S
Si23   O105    1.608   .     S
Si23   C106    1.882   .     S
Si23   C107    1.841   .     S
Si24   O108    1.579   .     S
Si24   O109    1.607   .     S
Si24   O112    1.628   .     S
Si24   O119    1.606   .     S
Si25   C110    1.897   .     S
Si25   C111    1.840   .     S
Si25   O117    1.575   .     S
Si25   C125    1.902   .     S
Si26   O112    1.625   .     S
Si26   C113    1.867   .     S
Si26   C114    1.852   .     S
Si26   O127    1.635   .     S
Si27   O115    1.612   .     S
Si27   O116    1.655   .     S
Si27   O118    1.677   .     S
Si27   O165    1.587   .     S
Si28   O117    1.587   .     S
Si28   O118    1.676   .     S
Si28   O137    1.688   .     S
Si28   O161    1.602   .     S
Si29   O119    1.642   .     S
Si29   C120    1.855   .     S
Si29   C121    1.817   .     S
Si29   O177    1.625   .     S
Si30   C122    1.843   .     S
Si30   O123    1.592   .     S
Si30   C124    1.886   .     S
Si30   C131    1.804   .     S
Si31   C126    1.883   .     S
Si31   O127    1.650   .     S
Si31   C133    1.822   .     S
Si31   O183    1.613   .     S
Si32   C128    1.889   .     S
Si32   O129    1.628   .     S
Si32   O130    1.601   .     S
Si32   O138    1.564   .     S
Si33   C132    1.903   .     S
Si33   C134    1.871   .     S
Si33   O135    1.604   .     S
Si33   O179    1.611   .     S
Si34   C136    1.888   .     S
Si34   O137    1.629   .     S
Si34   O139    1.610   .     S
Si34   O191    1.621   .     S
Si35   O138    1.586   .     S
Si35   O139    1.629   .     S
Si35   O140    1.636   .     S
Si35   O186    1.587   .     S
Si36   C142    1.856   .     S
Si36   C143    1.827   .     S
Si36   O141    1.581   1_554 S
Si36   C150    1.817   1_554 S
Si37   O144    1.690   .     S
Si37   O145    1.611   .     S
Si37   O153    1.583   .     S
Si37   O155    1.613   .     S
Si38   O146    1.624   .     S
Si38   O154    1.607   .     S
Si38   C147    1.855   1_545 S
Si38   O194    1.605   1_545 S
Si39   O148    1.593   .     S
Si39   C149    1.891   .     S
Si39   O151    1.571   .     S
Si39   O162    1.571   .     S
Si40   O152    1.562   .     S
Si40   O153    1.592   .     S
Si40   O154    1.642   .     S
Si40   O163    1.603   .     S
Si41   O155    1.616   .     S
Si41   C156    1.877   .     S
Si41   C157    1.903   .     S
Si41   C158    1.948   .     S
Si42   C159    1.814   .     S
Si42   C160    1.876   .     S
Si42   O161    1.570   .     S
Si42   C170    1.825   .     S
Si43   O162    1.584   .     S
Si43   O163    1.612   .     S
Si43   O164    1.606   .     S
Si43   O172    1.607   .     S
Si44   O165    1.569   .     S
Si44   C166    1.865   .     S
Si44   C167    1.829   .     S
Si44   C168    1.858   .     S
Si45   C169    1.791   .     S
Si45   C171    1.886   .     S
Si45   O172    1.592   .     S
Si45   C173    1.837   .     S
Si46   C174    1.830   .     S
Si46   C175    1.825   .     S
Si46   C176    1.935   .     S
Si46   O181    1.614   .     S
Si47   O177    1.618   .     S
Si47   C178    1.859   .     S
Si47   O179    1.634   .     S
Si47   O188    1.594   .     S
Si48   O181    1.598   .     S
Si48   C182    1.839   .     S
Si48   O180    1.655   1_554 S
Si48   C193    1.846   1_554 S
Si49   O183    1.599   .     S
Si49   C184    1.856   .     S
Si49   C185    1.913   .     S
Si49   O186    1.601   .     S
Si50   C187    1.876   .     S
Si50   O188    1.613   .     S
Si50   C189    1.815   .     S
Si50   C190    1.853   .     S
Si51   O191    1.623   .     S
Si51   C192    1.817   .     S
Si51   O194    1.621   .     S
Si51   C195    1.892   .     S
C52    H196    1.135   .     S
C52    H197    1.152   .     S
C52    H198    1.116   .     S
C53    H199    1.126   .     S
C53    H200    1.097   .     S
C53    H201    1.088   .     S
C54    H202    1.079   .     S
C54    H203    1.060   .     S
C54    H204    1.102   .     S
C54    Si2     1.877   1_565 S
C55    H205    1.067   .     S
C55    H206    1.048   .     S
C55    H207    1.121   .     S
C56    H208    1.083   .     S
C56    H209    1.152   .     S
C56    H210    1.138   .     S
C56    Si3     1.844   1_655 S
C57    H211    1.150   .     S
C57    H212    1.051   .     S
C57    H213    1.128   .     S
C59    H214    1.117   .     S
C59    H215    1.149   .     S
C59    H216    1.117   .     S
O60    Si1     1.659   1_556 S
C63    H217    1.115   .     S
C63    H218    1.097   .     S
C63    H219    1.104   .     S
C64    H220    1.083   .     S
C64    H221    1.100   .     S
C64    H222    1.076   .     S
C66    H223    1.077   .     S
C66    H224    1.188   .     S
C66    H225    1.138   .     S
C67    H226    1.096   .     S
C67    H227    1.118   .     S
C67    H228    1.112   .     S
C68    H229    1.096   .     S
C68    H230    1.075   .     S
C68    H231    1.086   .     S
C69    H232    1.127   .     S
C69    H233    1.106   .     S
C69    H234    1.100   .     S
C69    Si9     1.942   1_556 S
C70    H235    1.101   .     S
C70    H236    1.110   .     S
C70    H237    1.169   .     S
C71    H238    1.081   .     S
C71    H239    1.091   .     S
C71    H240    1.143   .     S
C72    H241    1.156   .     S
C72    H242    1.116   .     S
C72    H243    1.127   .     S
C75    H244    1.098   .     S
C75    H245    1.045   .     S
C75    H246    1.083   .     S
C76    H247    1.099   .     S
C76    H248    1.079   .     S
C76    H249    1.079   .     S
O77    Si9     1.609   1_556 S
C78    H250    1.149   .     S
C78    H251    1.090   .     S
C78    H252    1.110   .     S
C79    H253    1.070   .     S
C79    H254    1.064   .     S
C79    H255    1.051   .     S
C79    Si12    1.812   1_655 S
C80    H256    1.095   .     S
C80    H257    1.123   .     S
C80    H258    1.112   .     S
C81    H259    1.132   .     S
C81    H260    1.141   .     S
C81    H261    1.044   .     S
C81    Si2     1.877   1_565 S
C82    H262    1.165   .     S
C82    H263    1.147   .     S
C82    H264    1.090   .     S
C82    Si13    1.910   1_655 S
C83    H265    1.120   .     S
C83    H266    1.109   .     S
C83    H267    1.122   .     S
C83    Si13    1.817   1_655 S
C84    H268    1.136   .     S
C84    H269    1.146   .     S
C84    H270    1.132   .     S
O85    Si5     1.572   1_565 S
C86    H271    1.080   .     S
C86    H272    1.115   .     S
C86    H273    1.095   .     S
C86    Si14    1.872   1_655 S
C88    H274    1.098   .     S
C88    H275    1.208   .     S
C88    H276    1.089   .     S
O89    Si5     1.602   1_565 S
C90    H277    1.105   .     S
C90    H278    1.114   .     S
C90    H279    1.119   .     S
C91    H280    1.081   .     S
C91    H281    1.073   .     S
C91    H282    1.102   .     S
C91    Si16    1.849   1_565 S
C92    H283    1.118   .     S
C92    H284    1.097   .     S
C92    H285    1.071   .     S
C93    H286    1.135   .     S
C93    H287    1.104   .     S
C93    H288    1.058   .     S
C94    H289    1.095   .     S
C94    H290    1.128   .     S
C94    H291    1.151   .     S
C95    H292    1.130   .     S
C95    H293    1.091   .     S
C95    H294    1.085   .     S
C97    H295    1.103   .     S
C97    H296    1.052   .     S
C97    H297    1.097   .     S
C98    H298    1.160   .     S
C98    H299    1.128   .     S
C98    H300    1.127   .     S
C98    Si20    1.858   1_565 S
O100   Si18    1.609   1_556 S
O101   Si1     1.562   1_556 S
C102   H301    1.064   .     S
C102   H302    1.109   .     S
C102   H303    1.084   .     S
C106   H304    1.107   .     S
C106   H305    1.126   .     S
C106   H306    1.141   .     S
C107   H307    1.067   .     S
C107   H308    1.096   .     S
C107   H309    1.121   .     S
C110   H310    1.114   .     S
C110   H311    1.109   .     S
C110   H312    1.112   .     S
C111   H313    1.147   .     S
C111   H314    1.067   .     S
C111   H315    1.133   .     S
C113   H316    1.104   .     S
C113   H317    1.123   .     S
C113   H318    1.087   .     S
C114   H319    1.091   .     S
C114   H320    1.112   .     S
C114   H321    1.120   .     S
C120   H322    1.153   .     S
C120   H323    1.093   .     S
C120   H324    1.163   .     S
C121   H325    1.154   .     S
C121   H326    1.138   .     S
C121   H327    1.123   .     S
C122   H328    1.107   .     S
C122   H329    1.122   .     S
C122   H330    1.086   .     S
O123   Si16    1.540   1_565 S
C124   H331    1.122   .     S
C124   H332    1.082   .     S
C124   H333    1.100   .     S
C125   H334    1.133   .     S
C125   H335    1.141   .     S
C125   H336    1.105   .     S
C126   H337    1.094   .     S
C126   H338    1.077   .     S
C126   H339    1.056   .     S
C128   H340    1.068   .     S
C128   H341    1.108   .     S
C128   H342    1.102   .     S
O129   Si19    1.563   1_565 S
C131   H343    1.128   .     S
C131   H344    1.133   .     S
C131   H345    1.108   .     S
C132   H346    1.133   .     S
C132   H347    1.115   .     S
C132   H348    1.110   .     S
C133   H349    1.107   .     S
C133   H350    1.127   .     S
C133   H351    1.093   .     S
C134   H352    1.053   .     S
C134   H353    1.022   .     S
C134   H354    1.114   .     S
O135   Si19    1.593   1_565 S
C136   H355    1.121   .     S
C136   H356    1.137   .     S
C136   H357    1.108   .     S
O140   Si20    1.675   1_565 S
O141   Si6     1.556   1_655 S
O141   Si36    1.581   1_556 S
C142   H358    1.100   .     S
C142   H359    1.132   .     S
C142   H360    1.081   .     S
C143   H361    1.091   .     S
C143   H362    1.075   .     S
C143   H363    1.089   .     S
O146   Si6     1.646   1_655 S
C147   H364    1.107   .     S
C147   H365    1.103   .     S
C147   H366    1.153   .     S
C147   Si38    1.855   1_565 S
C149   H367    1.162   .     S
C149   H368    1.089   .     S
C149   H369    1.092   .     S
C150   H370    1.135   .     S
C150   H371    1.125   .     S
C150   H372    1.130   .     S
C150   Si36    1.817   1_556 S
O151   Si18    1.577   1_556 S
O152   Si3     1.599   1_655 S
C156   H373    1.086   .     S
C156   H374    1.121   .     S
C156   H375    1.135   .     S
C157   H376    1.056   .     S
C157   H377    1.134   .     S
C157   H378    1.132   .     S
C158   H379    1.049   .     S
C158   H380    1.114   .     S
C158   H381    1.114   .     S
C159   H382    1.144   .     S
C159   H383    1.115   .     S
C159   H384    1.067   .     S
C160   H385    1.084   .     S
C160   H386    1.083   .     S
C160   H387    1.086   .     S
O164   Si12    1.566   1_655 S
C166   H388    1.149   .     S
C166   H389    1.074   .     S
C166   H390    1.101   .     S
C167   H391    1.114   .     S
C167   H392    1.073   .     S
C167   H393    1.113   .     S
C168   H394    1.085   .     S
C168   H395    1.114   .     S
C168   H396    1.100   .     S
C169   H397    1.122   .     S
C169   H398    1.128   .     S
C169   H399    1.119   .     S
C170   H400    1.156   .     S
C170   H401    1.089   .     S
C170   H402    1.082   .     S
C171   H403    1.113   .     S
C171   H404    1.088   .     S
C171   H405    1.094   .     S
C173   H406    1.132   .     S
C173   H407    1.063   .     S
C173   H408    1.099   .     S
C174   H409    1.136   .     S
C174   H410    1.086   .     S
C174   H411    1.111   .     S
C175   H412    1.103   .     S
C175   H413    1.068   .     S
C175   H414    1.135   .     S
C176   H415    1.076   .     S
C176   H416    1.091   .     S
C176   H417    1.028   .     S
C178   H418    1.090   .     S
C178   H419    1.115   .     S
C178   H420    1.127   .     S
O180   Si14    1.617   1_655 S
O180   Si48    1.655   1_556 S
C182   H421    1.045   .     S
C182   H422    1.156   .     S
C182   H423    1.110   .     S
C184   H424    1.103   .     S
C184   H425    1.093   .     S
C184   H426    1.076   .     S
C185   H427    1.063   .     S
C185   H428    1.073   .     S
C185   H429    1.074   .     S
C187   H430    1.107   .     S
C187   H431    1.116   .     S
C187   H432    1.081   .     S
C189   H433    1.088   .     S
C189   H434    1.121   .     S
C189   H435    1.104   .     S
C190   H436    1.152   .     S
C190   H437    1.107   .     S
C190   H438    1.060   .     S
C192   H439    1.149   .     S
C192   H440    1.106   .     S
C192   H441    1.104   .     S
C193   H442    1.084   .     S
C193   H443    1.075   .     S
C193   H444    1.128   .     S
C193   Si48    1.846   1_556 S
O194   Si38    1.605   1_565 S
C195   H445    1.089   .     S
C195   H446    1.091   .     S
C195   H447    1.156   .     S
