data_333-11-11-14-15-30-3
_audit_creation_date              2025-03-07
_audit_creation_method            'Materials Studio'
_symmetry_space_group_name_H-M    'P1'
_symmetry_Int_Tables_number       1
_symmetry_cell_setting            triclinic
loop_
_symmetry_equiv_pos_as_xyz
  x,y,z
_cell_length_a                    18.0922
_cell_length_b                    17.1325
_cell_length_c                    18.1658
_cell_angle_alpha                 89.1159
_cell_angle_beta                  90.4879
_cell_angle_gamma                 127.8198
loop_
_atom_site_label
_atom_site_type_symbol
_atom_site_fract_x
_atom_site_fract_y
_atom_site_fract_z
_atom_site_U_iso_or_equiv
_atom_site_adp_type
_atom_site_occupancy
Si1    Si    0.15523  -0.00421   0.06353   0.00000  Uiso   1.00
Si2    Si    0.12000   0.12780  -0.02702   0.00000  Uiso   1.00
Si3    Si   -0.02522   0.13011   0.61044   0.00000  Uiso   1.00
Si4    Si    0.12334   0.01940   0.72885   0.00000  Uiso   1.00
Si5    Si   -0.01389   0.14577   0.88061   0.00000  Uiso   1.00
Si6    Si    0.17210   0.21604   0.66845   0.00000  Uiso   1.00
Si7    Si   -0.01454   0.51191   0.23220   0.00000  Uiso   1.00
Si8    Si    0.10770   0.50640   0.00380   0.00000  Uiso   1.00
Si9    Si    0.18227   0.40630   0.40477   0.00000  Uiso   1.00
Si10   Si    0.02563   0.46465   0.55672   0.00000  Uiso   1.00
Si11   Si    0.13931   0.53330   0.32321   0.00000  Uiso   1.00
Si12   Si    0.13852   0.32364   0.78068   0.00000  Uiso   1.00
Si13   Si   -0.03209   0.47068   0.88722   0.00000  Uiso   1.00
Si14   Si    0.10859   0.44393   0.68398   0.00000  Uiso   1.00
Si15   Si    0.13002   0.67037   0.10911   0.00000  Uiso   1.00
Si16   Si    0.18828   0.84711   0.00623   0.00000  Uiso   1.00
Si17   Si    0.16818   0.64796   0.46177   0.00000  Uiso   1.00
Si18   Si    0.10319   0.59381   0.76572   0.00000  Uiso   1.00
Si19   Si    0.26636   0.13161   0.19992   0.00000  Uiso   1.00
Si20   Si    0.48674   0.22612  -0.06254   0.00000  Uiso   1.00
Si21   Si    0.55480  -0.02115   0.45082   0.00000  Uiso   1.00
Si22   Si    0.26399   0.20364   0.53421   0.00000  Uiso   1.00
Si23   Si    0.42463   0.20362   0.30316   0.00000  Uiso   1.00
Si24   Si    0.55646   0.08138   0.65225   0.00000  Uiso   1.00
Si25   Si    0.51961   0.41366  -0.00597   0.00000  Uiso   1.00
Si26   Si    0.46597   0.58207   0.22626   0.00000  Uiso   1.00
Si27   Si    0.43088   0.32665   0.43021   0.00000  Uiso   1.00
Si28   Si    0.53858   0.52276   0.35143   0.00000  Uiso   1.00
Si29   Si    0.25304   0.49932   0.90875   0.00000  Uiso   1.00
Si30   Si    0.28095   0.83011   0.21066   0.00000  Uiso   1.00
Si31   Si    0.55461   0.92231   0.02598   0.00000  Uiso   1.00
Si32   Si    0.62364   0.69195   0.45893   0.00000  Uiso   1.00
Si33   Si    0.36963   0.78024   0.51977   0.00000  Uiso   1.00
Si34   Si    0.44978   0.67292   0.83232   0.00000  Uiso   1.00
Si35   Si    0.37132   0.87719   0.97197   0.00000  Uiso   1.00
Si36   Si    0.90682  -0.07582   0.27655   0.00000  Uiso   1.00
Si37   Si    0.59137   0.25422   0.20983   0.00000  Uiso   1.00
Si38   Si    0.71744   0.13634   0.55468   0.00000  Uiso   1.00
Si39   Si    0.84913   0.18400   0.32305   0.00000  Uiso   1.00
Si40   Si    0.79277  -0.01354   0.80273   0.00000  Uiso   1.00
Si41   Si    0.83416   0.14411   0.68669   0.00000  Uiso   1.00
Si42   Si    0.79757   0.37527   0.15472   0.00000  Uiso   1.00
Si43   Si    0.85658   0.55476  -0.11455   0.00000  Uiso   1.00
Si44   Si    0.86914   0.31469   0.44815   0.00000  Uiso   1.00
Si45   Si    0.58776   0.37452   0.53567   0.00000  Uiso   1.00
Si46   Si    0.87175   0.48134   0.37351   0.00000  Uiso   1.00
Si47   Si    0.83806   0.28489   0.79266   0.00000  Uiso   1.00
Si48   Si    0.90762   0.75155   0.27411   0.00000  Uiso   1.00
Si49   Si    0.77484   0.88662   0.01104   0.00000  Uiso   1.00
Si50   Si    0.62726   0.85691   0.90888   0.00000  Uiso   1.00
Si51   Si    0.74246   0.78915   0.75783   0.00000  Uiso   1.00
C52    C     0.04070   0.89858   0.10574   0.00000  Uiso   1.00
O53    O     0.12530   0.04166  -0.00021   0.00000  Uiso   1.00
C54    C     0.12898   0.19175   0.06018   0.00000  Uiso   1.00
C55    C     0.22656   0.20769   0.91115   0.00000  Uiso   1.00
C56    C     0.92850   0.00145   0.62909   0.00000  Uiso   1.00
C57    C     0.24028   0.05171   0.75416   0.00000  Uiso   1.00
C58    C     0.04857   0.94826   0.81128   0.00000  Uiso   1.00
C59    C     0.07471   0.92491   0.65354   0.00000  Uiso   1.00
O60    O     0.03148   0.09655   0.92155   0.00000  Uiso   1.00
C61    C     0.98471   0.23382   0.94343   0.00000  Uiso   1.00
O62    O     0.08789   0.19734   0.62225   0.00000  Uiso   1.00
O63    O     0.12754   0.11318   0.71277   0.00000  Uiso   1.00
C64    C     0.08734   0.42467   0.08441   0.00000  Uiso   1.00
C65    C    -0.05427   0.13377   0.51180   0.00000  Uiso   1.00
C66    C     0.16069   0.29796   0.35463   0.00000  Uiso   1.00
C67    C     0.31406   0.51058   0.40596   0.00000  Uiso   1.00
C68    C     0.15305   0.37368   0.50269   0.00000  Uiso   1.00
C69    C     0.94382   0.47534   0.60609   0.00000  Uiso   1.00
O70    O     0.05594   0.49443   0.26457   0.00000  Uiso   1.00
O71    O     0.12929   0.44165   0.36305   0.00000  Uiso   1.00
O72    O     0.04983   0.21718   0.81469   0.00000  Uiso   1.00
O73    O     0.19501   0.29970   0.72746   0.00000  Uiso   1.00
O74    O     0.01180   0.46606   0.96051   0.00000  Uiso   1.00
O75    O     0.05092   0.41364   0.61171   0.00000  Uiso   1.00
O76    O     0.08825   0.35372   0.73293   0.00000  Uiso   1.00
C77    C     0.23583   0.52792   0.66476   0.00000  Uiso   1.00
O78    O     0.04302   0.60374   0.16805   0.00000  Uiso   1.00
O79    O     0.13867   0.60595   0.05014   0.00000  Uiso   1.00
O80    O     0.12731   0.75196   0.06450   0.00000  Uiso   1.00
O81    O     0.19466   0.94370   0.02602   0.00000  Uiso   1.00
C82    C     0.13984   0.80710   0.91221   0.00000  Uiso   1.00
O83    O     0.11884   0.56794   0.52552   0.00000  Uiso   1.00
O84    O     0.13793   0.60055   0.38099   0.00000  Uiso   1.00
C85    C     0.14979   0.74498   0.46976   0.00000  Uiso   1.00
O86    O     0.04339   0.55969   0.83852   0.00000  Uiso   1.00
O87    O     0.08284   0.50109   0.72865   0.00000  Uiso   1.00
C88    C     0.08701   0.66780   0.70323   0.00000  Uiso   1.00
O89    O     0.23392   0.07522   0.12249   0.00000  Uiso   1.00
C90    C     0.17666   0.03953   0.26899   0.00000  Uiso   1.00
C91    C     0.37419   0.12588  -0.02049   0.00000  Uiso   1.00
C92    C     0.47304   0.24012   0.83867   0.00000  Uiso   1.00
C93    C     0.56715   0.19643   0.94404   0.00000  Uiso   1.00
C94    C     0.57331   0.93127   0.36838   0.00000  Uiso   1.00
C95    C     0.15312   0.11465   0.49051   0.00000  Uiso   1.00
O96    O     0.25242   0.24781   0.60797   0.00000  Uiso   1.00
O97    O     0.36429   0.17282   0.22979   0.00000  Uiso   1.00
C98    C     0.54887   0.07830   0.41814   0.00000  Uiso   1.00
C99    C     0.36850   0.08135   0.35567   0.00000  Uiso   1.00
C100   C     0.32031   0.14157   0.56105   0.00000  Uiso   1.00
C101   C     0.45439   0.05151   0.60523   0.00000  Uiso   1.00
C102   C     0.54455  -0.03425   0.68492   0.00000  Uiso   1.00
C103   C     0.56398   0.14168   0.73507   0.00000  Uiso   1.00
C104   C     0.25356   0.23004   0.20857   0.00000  Uiso   1.00
C105   C     0.42529   0.35926   0.06328   0.00000  Uiso   1.00
O106   O     0.53140   0.33006  -0.02485   0.00000  Uiso   1.00
C107   C     0.48771   0.44908  -0.09124   0.00000  Uiso   1.00
C108   C     0.63097   0.53006   0.02919   0.00000  Uiso   1.00
C109   C     0.35574   0.49471   0.17876   0.00000  Uiso   1.00
C110   C     0.56547   0.62566   0.16341   0.00000  Uiso   1.00
C111   C     0.47132   0.68705   0.25133   0.00000  Uiso   1.00
C112   C     0.25356   0.60754   0.27546   0.00000  Uiso   1.00
O113   O     0.33633   0.28240   0.47111   0.00000  Uiso   1.00
O114   O     0.41528   0.27178   0.35184   0.00000  Uiso   1.00
O115   O     0.47535   0.53502   0.29809   0.00000  Uiso   1.00
O116   O     0.47598   0.43954   0.40988   0.00000  Uiso   1.00
C117   C     0.60266   0.49224   0.29747   0.00000  Uiso   1.00
O118   O     0.20346   0.40791   0.84675   0.00000  Uiso   1.00
C119   C     0.28894   0.45611   0.98718   0.00000  Uiso   1.00
O120   O     0.18587   0.52433   0.94332   0.00000  Uiso   1.00
O121   O     0.22030   0.73600   0.15580   0.00000  Uiso   1.00
C122   C     0.40213   0.87489   0.21952   0.00000  Uiso   1.00
C123   C     0.27086   0.92632   0.18035   0.00000  Uiso   1.00
C124   C     0.22501   0.79135   0.29952   0.00000  Uiso   1.00
C125   C     0.52231   0.82103   0.09028   0.00000  Uiso   1.00
C126   C     0.65669   1.04801   0.06281   0.00000  Uiso   1.00
C127   C     0.53648   0.61711   0.53501   0.00000  Uiso   1.00
O128   O     0.60878   0.62355   0.39164   0.00000  Uiso   1.00
C129   C     0.58550   0.76242   0.42403   0.00000  Uiso   1.00
C130   C     0.74566   0.77755   0.49579   0.00000  Uiso   1.00
O131   O     0.28260   0.70613   0.46932   0.00000  Uiso   1.00
C132   C     0.42875   0.72818   0.55246   0.00000  Uiso   1.00
O133   O     0.45332   0.88836   0.48450   0.00000  Uiso   1.00
C134   C     0.31917   0.79924   0.59734   0.00000  Uiso   1.00
O135   O     0.35565   0.60256   0.88382   0.00000  Uiso   1.00
C136   C     0.44579   0.58209   0.77001   0.00000  Uiso   1.00
C137   C     0.44368   0.76399   0.78035   0.00000  Uiso   1.00
C138   C     0.22780   0.68156   0.78827   0.00000  Uiso   1.00
C139   C     0.31631   0.74719   0.95792   0.00000  Uiso   1.00
O140   O     0.46853   0.92521   1.01660   0.00000  Uiso   1.00
C141   C     0.40339   0.94671   0.88300   0.00000  Uiso   1.00
O142   O     0.29218   0.87729   1.01201   0.00000  Uiso   1.00
C143   C     0.77830  -0.13573   0.28193   0.00000  Uiso   1.00
C144   C     0.96928  -0.03234   0.36750   0.00000  Uiso   1.00
C145   C     0.56595   0.30250   0.13391   0.00000  Uiso   1.00
O146   O     0.53153   0.24871   0.28085   0.00000  Uiso   1.00
O147   O     0.64717   0.03570   0.50478   0.00000  Uiso   1.00
O148   O     0.64918   0.14225   0.60078   0.00000  Uiso   1.00
C149   C     0.93982   0.23880   0.25099   0.00000  Uiso   1.00
C150   C     0.53185   0.12121   0.18307   0.00000  Uiso   1.00
C151   C     0.74788   0.16421   0.28226   0.00000  Uiso   1.00
C152   C     0.82701   0.07057   0.35198   0.00000  Uiso   1.00
O153   O     0.88086   0.06343   0.85279   0.00000  Uiso   1.00
O154   O     0.93098   0.17065   0.66140   0.00000  Uiso   1.00
O155   O     0.77247   0.11536   0.61224   0.00000  Uiso   1.00
O156   O     0.78065   0.04088   0.73592   0.00000  Uiso   1.00
O157   O     0.70556   0.31768   0.20847   0.00000  Uiso   1.00
C158   C     0.78468   0.28319   0.08638   0.00000  Uiso   1.00
O159   O     0.89371   0.41599   0.19357   0.00000  Uiso   1.00
O160   O     0.89714   0.49365   0.90342   0.00000  Uiso   1.00
C161   C     0.80724   0.47027   0.10042   0.00000  Uiso   1.00
C162   C     0.72800   0.46643  -0.10772   0.00000  Uiso   1.00
C163   C     0.89798   0.64901  -0.03916   0.00000  Uiso   1.00
C164   C     0.88916   0.60919   0.78833   0.00000  Uiso   1.00
O165   O     0.78823   0.24001   0.50705   0.00000  Uiso   1.00
O166   O     0.88450   0.25531   0.39252   0.00000  Uiso   1.00
O167   O     0.96605   0.39002   0.49302   0.00000  Uiso   1.00
O168   O     0.50461   0.32435   0.47377   0.00000  Uiso   1.00
C169   C     0.65973   0.32810   0.54215   0.00000  Uiso   1.00
C170   C     0.67621   0.50858   0.52065   0.00000  Uiso   1.00
C171   C     0.54099   0.35397   0.62703   0.00000  Uiso   1.00
O172   O     0.94175   0.53023   0.30113   0.00000  Uiso   1.00
C173   C     0.75375   0.44314   0.35609   0.00000  Uiso   1.00
O174   O     0.84784   0.37902   0.40008   0.00000  Uiso   1.00
C175   C     0.91246   0.55767   0.45715   0.00000  Uiso   1.00
C176   C     0.75259   0.18690   0.85858   0.00000  Uiso   1.00
O177   O     0.85802   0.23950   0.72981   0.00000  Uiso   1.00
C178   C     0.78316   0.33132   0.74242   0.00000  Uiso   1.00
O179   O     0.92315   0.37505   0.84041   0.00000  Uiso   1.00
C180   C     0.85351   0.66239   0.19689   0.00000  Uiso   1.00
C181   C     1.02278   0.77542   0.29738   0.00000  Uiso   1.00
O182   O     0.92390   0.85022   0.25075   0.00000  Uiso   1.00
C183   C     0.83650   0.69890   0.35871   0.00000  Uiso   1.00
C184   C     0.84830   0.86535   0.95689   0.00000  Uiso   1.00
C185   C     0.75400   0.81978   0.09791   0.00000  Uiso   1.00
C186   C     0.82538   1.00938   0.03879   0.00000  Uiso   1.00
C187   C     0.96252   1.03064   0.21000   0.00000  Uiso   1.00
O188   O     0.54510   0.74631   0.87665   0.00000  Uiso   1.00
O189   O     0.67845   0.84174   0.97121   0.00000  Uiso   1.00
O190   O     0.70009   0.93678   0.84790   0.00000  Uiso   1.00
O191   O     0.58046   0.90145   0.94632   0.00000  Uiso   1.00
C192   C     0.81767   0.76969   0.70559   0.00000  Uiso   1.00
C193   C     0.65150   0.76813   0.69778   0.00000  Uiso   1.00
C194   C     0.69381   0.69224   0.82875   0.00000  Uiso   1.00
O195   O     0.80168   0.90294   0.77979   0.00000  Uiso   1.00
H196   H     0.04801   0.88257   0.16542   0.00000  Uiso   1.00
H197   H     0.00859   0.83436   0.07425   0.00000  Uiso   1.00
H198   H    -0.00711   0.91437   0.09848   0.00000  Uiso   1.00
H199   H     0.20251   0.25841   0.06008   0.00000  Uiso   1.00
H200   H     0.11238   0.13928   0.10378   0.00000  Uiso   1.00
H201   H     0.08322   0.21482   0.05826   0.00000  Uiso   1.00
H202   H     0.20776   0.25132   0.88539   0.00000  Uiso   1.00
H203   H     0.22465   0.16083   0.87081   0.00000  Uiso   1.00
H204   H     0.29254   0.25559   0.93787   0.00000  Uiso   1.00
H205   H     0.85299  -0.04156   0.62891   0.00000  Uiso   1.00
H206   H     0.95366  -0.01186   0.67840   0.00000  Uiso   1.00
H207   H     0.94296  -0.02330   0.57992   0.00000  Uiso   1.00
H208   H     0.23781   0.02034   0.80622   0.00000  Uiso   1.00
H209   H     0.29348   0.13610   0.75671   0.00000  Uiso   1.00
H210   H     0.26497   0.02745   0.70896   0.00000  Uiso   1.00
H211   H     0.02196   0.86962   0.80854   0.00000  Uiso   1.00
H212   H    -0.01107   0.95066   0.81099   0.00000  Uiso   1.00
H213   H     0.09719   0.98839   0.85812   0.00000  Uiso   1.00
H214   H     0.07602   0.86582   0.67767   0.00000  Uiso   1.00
H215   H     0.12408   0.96585   0.60522   0.00000  Uiso   1.00
H216   H     0.00317   0.89568   0.63479   0.00000  Uiso   1.00
H217   H     0.95193   0.20447   0.99867   0.00000  Uiso   1.00
H218   H     0.95335   0.26118   0.90753   0.00000  Uiso   1.00
H219   H     1.05858   0.29840   0.95503   0.00000  Uiso   1.00
H220   H     0.14482   0.46662   0.12821   0.00000  Uiso   1.00
H221   H     0.07198   0.35430   0.07149   0.00000  Uiso   1.00
H222   H     0.02240   0.40721   0.11369   0.00000  Uiso   1.00
H223   H    -0.10973   0.05752   0.48989   0.00000  Uiso   1.00
H224   H     0.00526   0.16133   0.47333   0.00000  Uiso   1.00
H225   H    -0.07993   0.17927   0.51142   0.00000  Uiso   1.00
H226   H     0.18180   0.31609   0.29479   0.00000  Uiso   1.00
H227   H     0.08437   0.24319   0.35314   0.00000  Uiso   1.00
H228   H     0.20996   0.29064   0.38399   0.00000  Uiso   1.00
H229   H     0.33516   0.51151   0.34903   0.00000  Uiso   1.00
H230   H     0.33930   0.48336   0.44769   0.00000  Uiso   1.00
H231   H     0.33747   0.58740   0.41770   0.00000  Uiso   1.00
H232   H     0.19937   0.35565   0.52310   0.00000  Uiso   1.00
H233   H     0.07925   0.32029   0.51805   0.00000  Uiso   1.00
H234   H     0.18004   0.44433   0.52598   0.00000  Uiso   1.00
H235   H     0.94937   0.46872   0.66500   0.00000  Uiso   1.00
H236   H     0.87090   0.41569   0.58810   0.00000  Uiso   1.00
H237   H     0.95734   0.54697   0.59410   0.00000  Uiso   1.00
H238   H     0.25594   0.59759   0.63490   0.00000  Uiso   1.00
H239   H     0.26599   0.49424   0.64221   0.00000  Uiso   1.00
H240   H     0.27174   0.54812   0.71886   0.00000  Uiso   1.00
H241   H     0.19111   0.86394   0.87332   0.00000  Uiso   1.00
H242   H     0.07878   0.80407   0.90198   0.00000  Uiso   1.00
H243   H     0.11128   0.72705   0.90034   0.00000  Uiso   1.00
H244   H     0.13391   0.75415   0.52629   0.00000  Uiso   1.00
H245   H     0.09740   0.72573   0.42845   0.00000  Uiso   1.00
H246   H     0.21029   0.82258   0.45405   0.00000  Uiso   1.00
H247   H     0.01116   0.62645   0.68989   0.00000  Uiso   1.00
H248   H     0.12241   0.68454   0.65031   0.00000  Uiso   1.00
H249   H     0.11878   0.73915   0.73119   0.00000  Uiso   1.00
H250   H     0.19736   0.08003   0.32206   0.00000  Uiso   1.00
H251   H     0.16454  -0.03423   0.27226   0.00000  Uiso   1.00
H252   H     0.11331   0.02646   0.24592   0.00000  Uiso   1.00
H253   H     0.34748   0.05433  -0.04175   0.00000  Uiso   1.00
H254   H     0.33115   0.15073  -0.02744   0.00000  Uiso   1.00
H255   H     0.38878   0.12136   0.03812   0.00000  Uiso   1.00
H256   H     0.43753   0.17224   0.80568   0.00000  Uiso   1.00
H257   H     0.54488   0.28843   0.81656   0.00000  Uiso   1.00
H258   H     0.43563   0.27393   0.82824   0.00000  Uiso   1.00
H259   H     0.53492   0.12697   0.97746   0.00000  Uiso   1.00
H260   H     0.64038   0.25417   0.96303   0.00000  Uiso   1.00
H261   H     0.57277   0.18089   0.88805   0.00000  Uiso   1.00
H262   H     0.64340   0.95266   0.36825   0.00000  Uiso   1.00
H263   H     0.56435   0.96431   0.31808   0.00000  Uiso   1.00
H264   H     0.51812   0.85096   0.37085   0.00000  Uiso   1.00
H265   H     0.13900   0.14793   0.44620   0.00000  Uiso   1.00
H266   H     0.10172   0.08016   0.53553   0.00000  Uiso   1.00
H267   H     0.16616   0.07089   0.45793   0.00000  Uiso   1.00
H268   H     0.50935   0.05567   0.36710   0.00000  Uiso   1.00
H269   H     0.61951   0.14496   0.41033   0.00000  Uiso   1.00
H270   H     0.52070   0.10051   0.45923   0.00000  Uiso   1.00
H271   H     0.36707   0.02490   0.32583   0.00000  Uiso   1.00
H272   H     0.29238   0.04296   0.36588   0.00000  Uiso   1.00
H273   H     0.39989   0.09949   0.40676   0.00000  Uiso   1.00
H274   H     0.36097   0.17232   0.61702   0.00000  Uiso   1.00
H275   H     0.36908   0.15136   0.51717   0.00000  Uiso   1.00
H276   H     0.26916   0.06174   0.57107   0.00000  Uiso   1.00
H277   H     0.44639   0.00896   0.56077   0.00000  Uiso   1.00
H278   H     0.46651   0.11840   0.59083   0.00000  Uiso   1.00
H279   H     0.38835   0.00513   0.64119   0.00000  Uiso   1.00
H280   H     0.61221  -0.00649   0.71415   0.00000  Uiso   1.00
H281   H     0.53390  -0.07975   0.63780   0.00000  Uiso   1.00
H282   H     0.48349  -0.08447   0.72167   0.00000  Uiso   1.00
H283   H     0.58233   0.21365   0.71523   0.00000  Uiso   1.00
H284   H     0.61293   0.14517   0.77418   0.00000  Uiso   1.00
H285   H     0.49446   0.10055   0.76153   0.00000  Uiso   1.00
H286   H     0.28727   0.27874   0.25822   0.00000  Uiso   1.00
H287   H     0.17818   0.20098   0.21843   0.00000  Uiso   1.00
H288   H     0.27575   0.27629   0.15854   0.00000  Uiso   1.00
H289   H     0.37767   0.27428   0.06369   0.00000  Uiso   1.00
H290   H     0.39093   0.39162   0.05342   0.00000  Uiso   1.00
H291   H     0.46291   0.39424   0.11823   0.00000  Uiso   1.00
H292   H     0.41569   0.39150  -0.10754   0.00000  Uiso   1.00
H293   H     0.53704   0.47356  -0.13928   0.00000  Uiso   1.00
H294   H     0.48687   0.51000  -0.07803   0.00000  Uiso   1.00
H295   H     0.63517   0.59660   0.02348   0.00000  Uiso   1.00
H296   H     0.68577   0.54751  -0.01086   0.00000  Uiso   1.00
H297   H     0.64889   0.52197   0.08281   0.00000  Uiso   1.00
H298   H     0.34262   0.53458   0.13969   0.00000  Uiso   1.00
H299   H     0.29078   0.44365   0.21113   0.00000  Uiso   1.00
H300   H     0.36599   0.44465   0.14981   0.00000  Uiso   1.00
H301   H     0.54852   0.65483   0.11811   0.00000  Uiso   1.00
H302   H     0.57077   0.56821   0.14594   0.00000  Uiso   1.00
H303   H     0.62445   0.67846   0.19840   0.00000  Uiso   1.00
H304   H     0.44953   0.67847   0.30951   0.00000  Uiso   1.00
H305   H     0.42306   0.69371   0.21717   0.00000  Uiso   1.00
H306   H     0.54806   0.75788   0.24084   0.00000  Uiso   1.00
H307   H     0.23698   0.62060   0.21990   0.00000  Uiso   1.00
H308   H     0.27558   0.55844   0.26760   0.00000  Uiso   1.00
H309   H     0.30142   0.67038   0.31330   0.00000  Uiso   1.00
H310   H     0.56758   0.45268   0.25143   0.00000  Uiso   1.00
H311   H     0.61379   0.45085   0.33391   0.00000  Uiso   1.00
H312   H     0.67131   0.55584   0.27773   0.00000  Uiso   1.00
H313   H     0.31227   0.41698   0.96429   0.00000  Uiso   1.00
H314   H     0.22864   0.40136   1.02119   0.00000  Uiso   1.00
H315   H     0.34609   0.52508   1.01270   0.00000  Uiso   1.00
H316   H     0.41862   0.82163   0.23333   0.00000  Uiso   1.00
H317   H     0.43775   0.93374   0.26131   0.00000  Uiso   1.00
H318   H     0.43023   0.91179   0.16519   0.00000  Uiso   1.00
H319   H     0.19790   0.89428   0.17821   0.00000  Uiso   1.00
H320   H     0.30781   0.95287   0.12764   0.00000  Uiso   1.00
H321   H     0.30542   0.98673   0.21615   0.00000  Uiso   1.00
H322   H     0.14837   0.72389   0.29483   0.00000  Uiso   1.00
H323   H     0.22153   0.84586   0.32521   0.00000  Uiso   1.00
H324   H     0.26909   0.78233   0.33594   0.00000  Uiso   1.00
H325   H     0.45577   0.74797   0.08211   0.00000  Uiso   1.00
H326   H     0.52678   0.83737   0.14921   0.00000  Uiso   1.00
H327   H     0.57582   0.81292   0.08607   0.00000  Uiso   1.00
H328   H     0.68852   1.03402   0.10914   0.00000  Uiso   1.00
H329   H     0.62173   1.07782   0.08468   0.00000  Uiso   1.00
H330   H     0.70942   1.09294   0.01706   0.00000  Uiso   1.00
H331   H     0.55749   0.58310   0.57408   0.00000  Uiso   1.00
H332   H     0.46606   0.56418   0.51852   0.00000  Uiso   1.00
H333   H     0.53817   0.67155   0.56584   0.00000  Uiso   1.00
H334   H     0.61063   0.82217   0.46075   0.00000  Uiso   1.00
H335   H     0.50919   0.71127   0.42180   0.00000  Uiso   1.00
H336   H     0.59713   0.77984   0.36576   0.00000  Uiso   1.00
H337   H     0.79561   0.82337   0.44892   0.00000  Uiso   1.00
H338   H     0.76476   0.73446   0.52360   0.00000  Uiso   1.00
H339   H     0.75788   0.83134   0.53647   0.00000  Uiso   1.00
H340   H     0.39386   0.65677   0.52519   0.00000  Uiso   1.00
H341   H     0.41062   0.70044   0.60869   0.00000  Uiso   1.00
H342   H     0.50836   0.77764   0.54285   0.00000  Uiso   1.00
H343   H     0.25919   0.72764   0.61936   0.00000  Uiso   1.00
H344   H     0.29935   0.84723   0.58309   0.00000  Uiso   1.00
H345   H     0.36718   0.82656   0.64081   0.00000  Uiso   1.00
H346   H     0.45796   0.59754   0.71063   0.00000  Uiso   1.00
H347   H     0.37145   0.51066   0.77290   0.00000  Uiso   1.00
H348   H     0.48823   0.56116   0.78979   0.00000  Uiso   1.00
H349   H     0.42294   0.79394   0.81754   0.00000  Uiso   1.00
H350   H     0.39774   0.73055   0.73318   0.00000  Uiso   1.00
H351   H     0.51570   0.82004   0.75592   0.00000  Uiso   1.00
H352   H     0.27494   0.72043   0.74178   0.00000  Uiso   1.00
H353   H     0.24821   0.64390   0.81936   0.00000  Uiso   1.00
H354   H     0.23442   0.73691   0.82439   0.00000  Uiso   1.00
H355   H     0.31395   0.71285   1.01366   0.00000  Uiso   1.00
H356   H     0.36093   0.74168   0.92136   0.00000  Uiso   1.00
H357   H     0.23787   0.70328   0.94273   0.00000  Uiso   1.00
H358   H     0.37694   0.89499   0.83518   0.00000  Uiso   1.00
H359   H     0.48350   1.00303   0.87951   0.00000  Uiso   1.00
H360   H     0.37393   0.98573   0.87860   0.00000  Uiso   1.00
H361   H     0.76681  -0.12444   0.34064   0.00000  Uiso   1.00
H362   H     0.73524  -0.21520   0.27060   0.00000  Uiso   1.00
H363   H     0.76002  -0.10131   0.24288   0.00000  Uiso   1.00
H364   H     0.93947  -0.01105   0.40742   0.00000  Uiso   1.00
H365   H     1.04227   0.02926   0.35863   0.00000  Uiso   1.00
H366   H     0.97775  -0.08670   0.39534   0.00000  Uiso   1.00
H367   H     0.49210   0.24359   0.12078   0.00000  Uiso   1.00
H368   H     0.60810   0.31564   0.08384   0.00000  Uiso   1.00
H369   H     0.57617   0.37013   0.14837   0.00000  Uiso   1.00
H370   H     0.93270   0.17929   0.22121   0.00000  Uiso   1.00
H371   H     1.00544   0.27637   0.28205   0.00000  Uiso   1.00
H372   H     0.92965   0.27743   0.20994   0.00000  Uiso   1.00
H373   H     0.52007   0.10044   0.12549   0.00000  Uiso   1.00
H374   H     0.47056   0.07639   0.21841   0.00000  Uiso   1.00
H375   H     0.57168   0.09731   0.21178   0.00000  Uiso   1.00
H376   H     0.68904   0.12288   0.31911   0.00000  Uiso   1.00
H377   H     0.71941   0.12195   0.23449   0.00000  Uiso   1.00
H378   H     0.77102   0.24358   0.27426   0.00000  Uiso   1.00
H379   H     0.79951   0.05635   0.40750   0.00000  Uiso   1.00
H380   H     0.89123   0.07048   0.34590   0.00000  Uiso   1.00
H381   H     0.78105   0.02356   0.30861   0.00000  Uiso   1.00
H382   H     0.78948   0.23169   0.11720   0.00000  Uiso   1.00
H383   H     0.84083   0.32631   0.04719   0.00000  Uiso   1.00
H384   H     0.71460   0.25102   0.06072   0.00000  Uiso   1.00
H385   H     0.87942   0.54061   0.10365   0.00000  Uiso   1.00
H386   H     0.75165   0.47817   0.11177   0.00000  Uiso   1.00
H387   H     0.78472   0.44634   0.04255   0.00000  Uiso   1.00
H388   H     0.70834   0.44393  -0.04996   0.00000  Uiso   1.00
H389   H     0.69531   0.40396  -0.14426   0.00000  Uiso   1.00
H390   H     0.69946   0.50578  -0.12501   0.00000  Uiso   1.00
H391   H     0.90762   0.71022  -0.07012   0.00000  Uiso   1.00
H392   H     0.96702   0.67341  -0.01382   0.00000  Uiso   1.00
H393   H     0.84560   0.62106   0.00441   0.00000  Uiso   1.00
H394   H     0.96363   0.67427   0.77946   0.00000  Uiso   1.00
H395   H     0.84515   0.62992   0.77430   0.00000  Uiso   1.00
H396   H     0.86551   0.55015   0.74769   0.00000  Uiso   1.00
H397   H     0.73343   0.38209   0.53284   0.00000  Uiso   1.00
H398   H     0.63102   0.26767   0.49892   0.00000  Uiso   1.00
H399   H     0.63723   0.28740   0.59584   0.00000  Uiso   1.00
H400   H     0.65101   0.54567   0.55177   0.00000  Uiso   1.00
H401   H     0.67740   0.53186   0.45988   0.00000  Uiso   1.00
H402   H     0.74509   0.53253   0.54155   0.00000  Uiso   1.00
H403   H     0.47908   0.35492   0.62756   0.00000  Uiso   1.00
H404   H     0.59866   0.41723   0.66222   0.00000  Uiso   1.00
H405   H     0.51793   0.28096   0.65319   0.00000  Uiso   1.00
H406   H     0.72341   0.45397   0.40237   0.00000  Uiso   1.00
H407   H     0.71550   0.36170   0.35072   0.00000  Uiso   1.00
H408   H     0.75920   0.48452   0.30678   0.00000  Uiso   1.00
H409   H     0.92534   0.62928   0.43990   0.00000  Uiso   1.00
H410   H     0.97979   0.57438   0.47134   0.00000  Uiso   1.00
H411   H     0.85742   0.51832   0.49716   0.00000  Uiso   1.00
H412   H     0.79366   0.17108   0.88933   0.00000  Uiso   1.00
H413   H     0.69901   0.11423   0.83611   0.00000  Uiso   1.00
H414   H     0.71810   0.20491   0.89239   0.00000  Uiso   1.00
H415   H     0.83747   0.41491   0.73321   0.00000  Uiso   1.00
H416   H     0.72702   0.31845   0.77411   0.00000  Uiso   1.00
H417   H     0.76261   0.29132   0.69055   0.00000  Uiso   1.00
H418   H     0.89808   0.69465   0.14800   0.00000  Uiso   1.00
H419   H     0.78219   0.63882   0.18519   0.00000  Uiso   1.00
H420   H     0.84799   0.59641   0.21339   0.00000  Uiso   1.00
H421   H     1.06042   0.78633   0.24399   0.00000  Uiso   1.00
H422   H     1.01249   0.71572   0.32511   0.00000  Uiso   1.00
H423   H     1.06279   0.84280   0.33073   0.00000  Uiso   1.00
H424   H     0.81101   0.62405   0.37026   0.00000  Uiso   1.00
H425   H     0.77416   0.69577   0.35171   0.00000  Uiso   1.00
H426   H     0.87161   0.73955   0.41141   0.00000  Uiso   1.00
H427   H     0.91751   0.90037   0.98628   0.00000  Uiso   1.00
H428   H     0.86031   0.89519   0.90254   0.00000  Uiso   1.00
H429   H     0.81619   0.78939   0.95708   0.00000  Uiso   1.00
H430   H     0.71180   0.82981   0.13456   0.00000  Uiso   1.00
H431   H     0.82597   0.85132   0.12358   0.00000  Uiso   1.00
H432   H     0.72679   0.73998   0.09169   0.00000  Uiso   1.00
H433   H     0.80815   1.03886  -0.00989   0.00000  Uiso   1.00
H434   H     0.89727   1.05278   0.04750   0.00000  Uiso   1.00
H435   H     0.79127   1.00725   0.08979   0.00000  Uiso   1.00
H436   H     1.01101   1.10071   0.23793   0.00000  Uiso   1.00
H437   H     0.90978   1.03523   0.18249   0.00000  Uiso   1.00
H438   H     0.99667   1.01550   0.16974   0.00000  Uiso   1.00
H439   H     0.78292   0.68578   0.69686   0.00000  Uiso   1.00
H440   H     0.88936   0.80001   0.72852   0.00000  Uiso   1.00
H441   H     0.82840   0.79999   0.64853   0.00000  Uiso   1.00
H442   H     0.61588   0.70108   0.67246   0.00000  Uiso   1.00
H443   H     0.68711   0.83078   0.65633   0.00000  Uiso   1.00
H444   H     0.60538   0.78052   0.72429   0.00000  Uiso   1.00
H445   H     0.74572   0.68474   0.85533   0.00000  Uiso   1.00
H446   H     0.64844   0.61992   0.80006   0.00000  Uiso   1.00
H447   H     0.65649   0.70291   0.86644   0.00000  Uiso   1.00
loop_
_geom_bond_atom_site_label_1
_geom_bond_atom_site_label_2
_geom_bond_distance
_geom_bond_site_symmetry_2
_ccdc_geom_bond_type
Si1    O53     1.654   .     S
Si1    O89     1.634   .     S
Si1    C52     1.847   1_545 S
Si1    O81     1.605   1_545 S
Si2    O53     1.605   .     S
Si2    C54     1.889   .     S
Si2    C55     1.899   1_554 S
Si2    O60     1.632   1_554 S
Si3    O62     1.634   .     S
Si3    C65     1.874   .     S
Si3    C56     1.842   1_455 S
Si3    O154    1.635   1_455 S
Si4    C57     1.884   .     S
Si4    O63     1.584   .     S
Si4    C58     1.875   1_545 S
Si4    C59     1.889   1_545 S
Si5    O60     1.660   .     S
Si5    O72     1.584   .     S
Si5    C61     1.918   1_455 S
Si5    O153    1.607   1_455 S
Si6    O62     1.586   .     S
Si6    O63     1.621   .     S
Si6    O73     1.639   .     S
Si6    O96     1.629   .     S
Si7    O70     1.585   .     S
Si7    O78     1.695   .     S
Si7    O159    1.618   1_455 S
Si7    O172    1.620   1_455 S
Si8    C64     1.885   .     S
Si8    O79     1.672   .     S
Si8    O74     1.622   1_554 S
Si8    O120    1.669   1_554 S
Si9    C66     1.893   .     S
Si9    C67     1.911   .     S
Si9    C68     1.838   .     S
Si9    O71     1.595   .     S
Si10   O75     1.558   .     S
Si10   O83     1.619   .     S
Si10   C69     1.841   1_455 S
Si10   O167    1.572   1_455 S
Si11   O70     1.617   .     S
Si11   O71     1.625   .     S
Si11   O84     1.582   .     S
Si11   C112    1.848   .     S
Si12   O72     1.636   .     S
Si12   O73     1.640   .     S
Si12   O76     1.547   .     S
Si12   O118    1.690   .     S
Si13   O74     1.570   .     S
Si13   O86     1.549   .     S
Si13   O160    1.584   1_455 S
Si13   O179    1.571   1_455 S
Si14   O75     1.554   .     S
Si14   O76     1.606   .     S
Si14   C77     1.851   .     S
Si14   O87     1.557   .     S
Si15   O78     1.647   .     S
Si15   O79     1.625   .     S
Si15   O80     1.631   .     S
Si15   O121    1.551   .     S
Si16   O80     1.660   .     S
Si16   O81     1.632   .     S
Si16   C82     1.852   1_554 S
Si16   O142    1.618   1_554 S
Si17   O83     1.577   .     S
Si17   O84     1.609   .     S
Si17   C85     1.892   .     S
Si17   O131    1.663   .     S
Si18   O86     1.577   .     S
Si18   O87     1.557   .     S
Si18   C88     1.840   .     S
Si18   C138    1.832   .     S
Si19   O89     1.609   .     S
Si19   C90     1.879   .     S
Si19   O97     1.547   .     S
Si19   C104    1.847   .     S
Si20   C91     1.838   .     S
Si20   O106    1.599   .     S
Si20   C92     1.842   1_554 S
Si20   C93     1.814   1_554 S
Si21   C98     1.860   .     S
Si21   O147    1.645   .     S
Si21   C94     1.844   1_545 S
Si21   O133    1.627   1_545 S
Si22   C95     1.799   .     S
Si22   O96     1.626   .     S
Si22   C100    1.927   .     S
Si22   O113    1.631   .     S
Si23   O97     1.593   .     S
Si23   C99     1.917   .     S
Si23   O114    1.566   .     S
Si23   O146    1.635   .     S
Si24   C101    1.797   .     S
Si24   C102    1.941   .     S
Si24   C103    1.795   .     S
Si24   O148    1.621   .     S
Si25   C105    1.847   .     S
Si25   O106    1.614   .     S
Si25   C107    1.867   .     S
Si25   C108    1.880   .     S
Si26   C109    1.820   .     S
Si26   C110    1.861   .     S
Si26   C111    1.806   .     S
Si26   O115    1.585   .     S
Si27   O113    1.571   .     S
Si27   O114    1.643   .     S
Si27   O116    1.609   .     S
Si27   O168    1.566   .     S
Si28   O115    1.600   .     S
Si28   O116    1.561   .     S
Si28   C117    1.832   .     S
Si28   O128    1.569   .     S
Si29   O118    1.685   .     S
Si29   C119    1.882   .     S
Si29   O120    1.648   .     S
Si29   O135    1.656   .     S
Si30   O121    1.630   .     S
Si30   C122    1.832   .     S
Si30   C123    1.842   .     S
Si30   C124    1.800   .     S
Si31   C125    1.850   .     S
Si31   C126    1.908   .     S
Si31   O140    1.596   1_554 S
Si31   O191    1.635   1_554 S
Si32   C127    1.882   .     S
Si32   O128    1.610   .     S
Si32   C129    1.824   .     S
Si32   C130    1.873   .     S
Si33   O131    1.578   .     S
Si33   C132    1.853   .     S
Si33   O133    1.635   .     S
Si33   C134    1.824   .     S
Si34   O135    1.644   .     S
Si34   C136    1.903   .     S
Si34   C137    1.871   .     S
Si34   O188    1.597   .     S
Si35   C139    1.820   .     S
Si35   O140    1.628   .     S
Si35   C141    1.864   .     S
Si35   O142    1.612   .     S
Si36   C143    1.882   .     S
Si36   C144    1.880   .     S
Si36   O182    1.556   1_545 S
Si36   C187    1.871   1_545 S
Si37   C145    1.794   .     S
Si37   O146    1.655   .     S
Si37   C150    1.899   .     S
Si37   O157    1.642   .     S
Si38   O147    1.659   .     S
Si38   O148    1.552   .     S
Si38   O155    1.620   .     S
Si38   O165    1.651   .     S
Si39   C149    1.843   .     S
Si39   C151    1.801   .     S
Si39   C152    1.798   .     S
Si39   O166    1.603   .     S
Si40   O153    1.594   .     S
Si40   O156    1.613   .     S
Si40   O190    1.569   1_545 S
Si40   O195    1.597   1_545 S
Si41   O154    1.586   .     S
Si41   O155    1.624   .     S
Si41   O156    1.653   .     S
Si41   O177    1.625   .     S
Si42   O157    1.638   .     S
Si42   C158    1.921   .     S
Si42   O159    1.586   .     S
Si42   C161    1.804   .     S
Si43   C162    1.844   .     S
Si43   C163    1.900   .     S
Si43   O160    1.634   1_554 S
Si43   C164    1.903   1_554 S
Si44   O165    1.616   .     S
Si44   O166    1.586   .     S
Si44   O167    1.624   .     S
Si44   O174    1.616   .     S
Si45   O168    1.638   .     S
Si45   C169    1.899   .     S
Si45   C170    1.842   .     S
Si45   C171    1.799   .     S
Si46   O172    1.652   .     S
Si46   C173    1.835   .     S
Si46   O174    1.594   .     S
Si46   C175    1.850   .     S
Si47   C176    1.852   .     S
Si47   O177    1.555   .     S
Si47   C178    1.839   .     S
Si47   O179    1.616   .     S
Si48   C180    1.862   .     S
Si48   C181    1.906   .     S
Si48   O182    1.579   .     S
Si48   C183    1.844   .     S
Si49   C185    1.835   .     S
Si49   C186    1.783   .     S
Si49   C184    1.869   1_554 S
Si49   O189    1.583   1_554 S
Si50   O188    1.646   .     S
Si50   O189    1.574   .     S
Si50   O190    1.613   .     S
Si50   O191    1.606   .     S
Si51   C192    1.858   .     S
Si51   C193    1.812   .     S
Si51   C194    1.831   .     S
Si51   O195    1.601   .     S
C52    H196    1.141   .     S
C52    H197    1.051   .     S
C52    H198    1.060   .     S
C52    Si1     1.847   1_565 S
C54    H199    1.100   .     S
C54    H200    1.085   .     S
C54    H201    1.115   .     S
C55    H202    1.092   .     S
C55    H203    1.080   .     S
C55    H204    1.065   .     S
C55    Si2     1.899   1_556 S
C56    H205    1.084   .     S
C56    H206    1.084   .     S
C56    H207    1.095   .     S
C56    Si3     1.842   1_655 S
C57    H208    1.068   .     S
C57    H209    1.146   .     S
C57    H210    1.136   .     S
C58    H211    1.120   .     S
C58    H212    1.105   .     S
C58    H213    1.111   .     S
C58    Si4     1.875   1_565 S
C59    H214    1.111   .     S
C59    H215    1.134   .     S
C59    H216    1.116   .     S
C59    Si4     1.889   1_565 S
O60    Si2     1.632   1_556 S
C61    H217    1.114   .     S
C61    H218    1.130   .     S
C61    H219    1.115   .     S
C61    Si5     1.918   1_655 S
C64    H220    1.148   .     S
C64    H221    1.087   .     S
C64    H222    1.152   .     S
C65    H223    1.129   .     S
C65    H224    1.118   .     S
C65    H225    1.126   .     S
C66    H226    1.129   .     S
C66    H227    1.095   .     S
C66    H228    1.105   .     S
C67    H229    1.102   .     S
C67    H230    1.116   .     S
C67    H231    1.132   .     S
C68    H232    1.115   .     S
C68    H233    1.094   .     S
C68    H234    1.082   .     S
C69    H235    1.085   .     S
C69    H236    1.114   .     S
C69    H237    1.112   .     S
C69    Si10    1.841   1_655 S
O74    Si8     1.622   1_556 S
C77    H238    1.141   .     S
C77    H239    1.093   .     S
C77    H240    1.110   .     S
O81    Si1     1.605   1_565 S
C82    H241    1.091   .     S
C82    H242    1.088   .     S
C82    H243    1.154   .     S
C82    Si16    1.852   1_556 S
C85    H244    1.108   .     S
C85    H245    1.087   .     S
C85    H246    1.121   .     S
C88    H247    1.119   .     S
C88    H248    1.092   .     S
C88    H249    1.111   .     S
C90    H250    1.117   .     S
C90    H251    1.143   .     S
C90    H252    1.104   .     S
C91    H253    1.082   .     S
C91    H254    1.098   .     S
C91    H255    1.108   .     S
C92    H256    1.106   .     S
C92    H257    1.102   .     S
C92    H258    1.142   .     S
C92    Si20    1.842   1_556 S
C93    H259    1.121   .     S
C93    H260    1.117   .     S
C93    H261    1.077   .     S
C93    Si20    1.814   1_556 S
C94    H262    1.083   .     S
C94    H263    1.130   .     S
C94    H264    1.098   .     S
C94    Si21    1.844   1_565 S
C95    H265    1.095   .     S
C95    H266    1.099   .     S
C95    H267    1.096   .     S
C98    H268    1.087   .     S
C98    H269    1.080   .     S
C98    H270    1.102   .     S
C99    H271    1.102   .     S
C99    H272    1.120   .     S
C99    H273    1.032   .     S
C100   H274    1.175   .     S
C100   H275    1.126   .     S
C100   H276    1.097   .     S
C101   H277    1.045   .     S
C101   H278    1.055   .     S
C101   H279    1.148   .     S
C102   H280    1.135   .     S
C102   H281    1.100   .     S
C102   H282    1.112   .     S
C103   H283    1.117   .     S
C103   H284    1.104   .     S
C103   H285    1.106   .     S
C104   H286    1.128   .     S
C104   H287    1.144   .     S
C104   H288    1.099   .     S
C105   H289    1.150   .     S
C105   H290    1.069   .     S
C105   H291    1.151   .     S
C107   H292    1.089   .     S
C107   H293    1.130   .     S
C107   H294    1.084   .     S
C108   H295    1.098   .     S
C108   H296    1.115   .     S
C108   H297    1.058   .     S
C109   H298    1.099   .     S
C109   H299    1.108   .     S
C109   H300    1.121   .     S
C110   H301    1.092   .     S
C110   H302    1.098   .     S
C110   H303    1.088   .     S
C111   H304    1.107   .     S
C111   H305    1.128   .     S
C111   H306    1.170   .     S
C112   H307    1.109   .     S
C112   H308    1.141   .     S
C112   H309    1.118   .     S
C117   H310    1.021   .     S
C117   H311    1.068   .     S
C117   H312    1.093   .     S
C119   H313    1.077   .     S
C119   H314    1.091   .     S
C119   H315    1.091   .     S
O120   Si8     1.669   1_556 S
C122   H316    1.145   .     S
C122   H317    1.107   .     S
C122   H318    1.108   .     S
C123   H319    1.075   .     S
C123   H320    1.093   .     S
C123   H321    1.051   .     S
C124   H322    1.141   .     S
C124   H323    1.086   .     S
C124   H324    1.112   .     S
C125   H325    1.092   .     S
C125   H326    1.100   .     S
C125   H327    1.062   .     S
C126   H328    1.119   .     S
C126   H329    1.107   .     S
C126   H330    1.134   .     S
C127   H331    1.114   .     S
C127   H332    1.058   .     S
C127   H333    1.079   .     S
C129   H334    1.070   .     S
C129   H335    1.092   .     S
C129   H336    1.082   .     S
C130   H337    1.132   .     S
C130   H338    1.104   .     S
C130   H339    1.101   .     S
C132   H340    1.099   .     S
C132   H341    1.085   .     S
C132   H342    1.151   .     S
O133   Si21    1.627   1_565 S
C134   H343    1.096   .     S
C134   H344    1.107   .     S
C134   H345    1.048   .     S
C136   H346    1.098   .     S
C136   H347    1.136   .     S
C136   H348    1.085   .     S
C137   H349    1.054   .     S
C137   H350    1.083   .     S
C137   H351    1.131   .     S
C138   H352    1.087   .     S
C138   H353    1.072   .     S
C138   H354    1.106   .     S
C139   H355    1.151   .     S
C139   H356    1.098   .     S
C139   H357    1.160   .     S
O140   Si31    1.596   1_556 S
C141   H358    1.125   .     S
C141   H359    1.149   .     S
C141   H360    1.083   .     S
O142   Si16    1.618   1_556 S
C143   H361    1.130   .     S
C143   H362    1.099   .     S
C143   H363    1.088   .     S
C144   H364    1.098   .     S
C144   H365    1.083   .     S
C144   H366    1.143   .     S
C145   H367    1.100   .     S
C145   H368    1.120   .     S
C145   H369    1.092   .     S
C149   H370    1.097   .     S
C149   H371    1.098   .     S
C149   H372    1.077   .     S
C150   H373    1.087   .     S
C150   H374    1.088   .     S
C150   H375    1.144   .     S
C151   H376    1.075   .     S
C151   H377    1.047   .     S
C151   H378    1.159   .     S
C152   H379    1.085   .     S
C152   H380    1.169   .     S
C152   H381    1.071   .     S
O153   Si5     1.607   1_655 S
O154   Si3     1.635   1_655 S
C158   H382    1.085   .     S
C158   H383    1.077   .     S
C158   H384    1.127   .     S
O159   Si7     1.618   1_655 S
O160   Si13    1.584   1_655 S
O160   Si43    1.634   1_556 S
C161   H385    1.110   .     S
C161   H386    1.115   .     S
C161   H387    1.114   .     S
C162   H388    1.096   .     S
C162   H389    1.084   .     S
C162   H390    1.112   .     S
C163   H391    1.098   .     S
C163   H392    1.141   .     S
C163   H393    1.095   .     S
C164   H394    1.114   .     S
C164   H395    1.080   .     S
C164   H396    1.113   .     S
C164   Si43    1.903   1_556 S
O167   Si10    1.572   1_655 S
C169   H397    1.072   .     S
C169   H398    1.148   .     S
C169   H399    1.114   .     S
C170   H400    1.141   .     S
C170   H401    1.164   .     S
C170   H402    1.111   .     S
C171   H403    1.130   .     S
C171   H404    1.138   .     S
C171   H405    1.144   .     S
O172   Si7     1.620   1_655 S
C173   H406    1.086   .     S
C173   H407    1.120   .     S
C173   H408    1.100   .     S
C175   H409    1.139   .     S
C175   H410    1.096   .     S
C175   H411    1.072   .     S
C176   H412    1.083   .     S
C176   H413    1.089   .     S
C176   H414    1.054   .     S
C178   H415    1.146   .     S
C178   H416    1.069   .     S
C178   H417    1.094   .     S
O179   Si13    1.571   1_655 S
C180   H418    1.093   .     S
C180   H419    1.110   .     S
C180   H420    1.109   .     S
C181   H421    1.135   .     S
C181   H422    1.042   .     S
C181   H423    1.101   .     S
O182   Si36    1.556   1_565 S
C183   H424    1.081   .     S
C183   H425    1.102   .     S
C183   H426    1.128   .     S
C184   H427    1.136   .     S
C184   H428    1.065   .     S
C184   H429    1.050   .     S
C184   Si49    1.869   1_556 S
C185   H430    1.108   .     S
C185   H431    1.157   .     S
C185   H432    1.141   .     S
C186   H433    1.144   .     S
C186   H434    1.041   .     S
C186   H435    1.105   .     S
C187   H436    1.090   .     S
C187   H437    1.118   .     S
C187   H438    1.093   .     S
C187   Si36    1.871   1_565 S
O189   Si49    1.583   1_556 S
O190   Si40    1.569   1_565 S
O191   Si31    1.635   1_556 S
C192   H439    1.177   .     S
C192   H440    1.139   .     S
C192   H441    1.116   .     S
C193   H442    1.025   .     S
C193   H443    1.127   .     S
C193   H444    1.096   .     S
C194   H445    1.127   .     S
C194   H446    1.116   .     S
C194   H447    1.059   .     S
O195   Si40    1.597   1_565 S
