data_333-11-11-14-15-30-20
_audit_creation_date              2025-03-07
_audit_creation_method            'Materials Studio'
_symmetry_space_group_name_H-M    'P1'
_symmetry_Int_Tables_number       1
_symmetry_cell_setting            triclinic
loop_
_symmetry_equiv_pos_as_xyz
  x,y,z
_cell_length_a                    15.7790
_cell_length_b                    16.6672
_cell_length_c                    20.0767
_cell_angle_alpha                 102.3942
_cell_angle_beta                  84.0054
_cell_angle_gamma                 120.6292
loop_
_atom_site_label
_atom_site_type_symbol
_atom_site_fract_x
_atom_site_fract_y
_atom_site_fract_z
_atom_site_U_iso_or_equiv
_atom_site_adp_type
_atom_site_occupancy
Si1    Si    0.18119  -0.04285   0.15979   0.00000  Uiso   1.00
Si2    Si   -0.01223   0.20263   0.21338   0.00000  Uiso   1.00
Si3    Si    0.03682  -0.16068   0.44187   0.00000  Uiso   1.00
Si4    Si   -0.04709   0.19201   0.58527   0.00000  Uiso   1.00
Si5    Si    0.20053   0.05100   0.92544   0.00000  Uiso   1.00
Si6    Si    0.09280   0.31422   0.70152   0.00000  Uiso   1.00
Si7    Si    0.17769   0.52701  -0.02727   0.00000  Uiso   1.00
Si8    Si   -0.03220   0.49805   0.51268   0.00000  Uiso   1.00
Si9    Si    0.16154   0.66715   0.09587   0.00000  Uiso   1.00
Si10   Si    0.00212   0.78870   0.21911   0.00000  Uiso   1.00
Si11   Si    0.19944   0.84154   0.02728   0.00000  Uiso   1.00
Si12   Si    0.10593   0.62651   0.40696   0.00000  Uiso   1.00
Si13   Si    0.10610   0.75554   0.31808   0.00000  Uiso   1.00
Si14   Si    0.26421   0.75487   0.80464   0.00000  Uiso   1.00
Si15   Si    0.04783   0.84357   0.92906   0.00000  Uiso   1.00
Si16   Si    0.45237  -0.06884   0.14916   0.00000  Uiso   1.00
Si17   Si    0.30642   0.10352   0.27986   0.00000  Uiso   1.00
Si18   Si    0.50853   0.08883   0.07449   0.00000  Uiso   1.00
Si19   Si    0.43680  -0.06413   0.44003   0.00000  Uiso   1.00
Si20   Si    0.53521  -0.00206   0.85719   0.00000  Uiso   1.00
Si21   Si    0.38117   0.14218   1.01359   0.00000  Uiso   1.00
Si22   Si    0.46098   0.17629   0.60597   0.00000  Uiso   1.00
Si23   Si    0.31180   0.48720   0.15188   0.00000  Uiso   1.00
Si24   Si    0.35360   0.47305   0.43952   0.00000  Uiso   1.00
Si25   Si    0.55956   0.50494   0.73982   0.00000  Uiso   1.00
Si26   Si    0.46565   0.62053   0.06212   0.00000  Uiso   1.00
Si27   Si    0.28224   0.78330   0.22607   0.00000  Uiso   1.00
Si28   Si    0.49772   0.80115   0.02593   0.00000  Uiso   1.00
Si29   Si    0.45576   0.66599   0.40145   0.00000  Uiso   1.00
Si30   Si    0.27672   0.77117   0.51463   0.00000  Uiso   1.00
Si31   Si    0.43563   0.78727   0.31378   0.00000  Uiso   1.00
Si32   Si    0.60949   0.69729   0.82038   0.00000  Uiso   1.00
Si33   Si    0.38436   0.85073   0.93624   0.00000  Uiso   1.00
Si34   Si    0.90292   0.03738   0.09381   0.00000  Uiso   1.00
Si35   Si    0.61016   0.13084   0.51669   0.00000  Uiso   1.00
Si36   Si    0.81994   0.19006   0.31332   0.00000  Uiso   1.00
Si37   Si    0.74381   0.15144   0.62650   0.00000  Uiso   1.00
Si38   Si    0.78683   0.34347  -0.03540   0.00000  Uiso   1.00
Si39   Si    0.70547   0.55030   0.17827   0.00000  Uiso   1.00
Si40   Si    0.82910   0.54044  -0.03003   0.00000  Uiso   1.00
Si41   Si    0.78656   0.30248   0.44210   0.00000  Uiso   1.00
Si42   Si    0.72438   0.51015   0.64683   0.00000  Uiso   1.00
Si43   Si    0.72024   0.41190   0.37342   0.00000  Uiso   1.00
Si44   Si    0.94496   0.58247   0.66839   0.00000  Uiso   1.00
Si45   Si    0.86105   0.68805   0.09545   0.00000  Uiso   1.00
Si46   Si    0.87012   0.83838   0.02698   0.00000  Uiso   1.00
Si47   Si    0.59047   0.79207   0.52085   0.00000  Uiso   1.00
Si48   Si    0.88896   0.89450   0.28438   0.00000  Uiso   1.00
Si49   Si    0.98087   0.76326   0.77768   0.00000  Uiso   1.00
Si50   Si    0.69662   0.82393   0.95716   0.00000  Uiso   1.00
Si51   Si    1.01620   0.93504   0.72169   0.00000  Uiso   1.00
C52    C     0.11677   0.01258   0.14032   0.00000  Uiso   1.00
C53    C     0.10970   0.25801   0.24972   0.00000  Uiso   1.00
C54    C    -0.02719   0.27748   0.16293   0.00000  Uiso   1.00
C55    C     0.03030  -0.04818   0.45420   0.00000  Uiso   1.00
C56    C     0.07513  -0.16324   0.52658   0.00000  Uiso   1.00
C57    C    -0.08680   0.73384   0.42936   0.00000  Uiso   1.00
C58    C     0.00570   0.21266   0.50038   0.00000  Uiso   1.00
C59    C     0.95863   0.08992   0.60677   0.00000  Uiso   1.00
C60    C     0.24853   1.06778   0.84023   0.00000  Uiso   1.00
O61    O     0.01990   0.27759   0.63885   0.00000  Uiso   1.00
C62    C     0.15391   0.13641   0.96544   0.00000  Uiso   1.00
C63    C     0.03957   0.28948   0.78824   0.00000  Uiso   1.00
C64    C     0.17362   0.44730   0.71209   0.00000  Uiso   1.00
C65    C     0.17658   0.26166   0.68096   0.00000  Uiso   1.00
C66    C     0.15803   0.40863  -0.01105   0.00000  Uiso   1.00
C67    C     0.05681   0.49324   0.94046   0.00000  Uiso   1.00
C68    C     0.27143   0.57017   0.90869   0.00000  Uiso   1.00
C69    C     0.06384   0.47131   0.52740   0.00000  Uiso   1.00
C70    C     0.02677   0.57500   0.11364   0.00000  Uiso   1.00
O71    O     0.20227   0.60562   0.04294   0.00000  Uiso   1.00
O72    O     0.10826   0.87207   0.19799   0.00000  Uiso   1.00
O73    O     0.16243   0.74598   0.05985   0.00000  Uiso   1.00
O74    O     0.21577   0.92706   0.08715   0.00000  Uiso   1.00
O75    O     0.00720   0.55610   0.44767   0.00000  Uiso   1.00
C76    C     0.15889   0.55367   0.35881   0.00000  Uiso   1.00
O77    O     0.03112   0.73427   0.26263   0.00000  Uiso   1.00
O78    O     0.08094   0.66561   0.35075   0.00000  Uiso   1.00
O79    O     0.10104   0.83265   0.37751   0.00000  Uiso   1.00
C80    C     0.14124   0.67013   0.82703   0.00000  Uiso   1.00
C81    C     0.29723   0.69584   0.72502   0.00000  Uiso   1.00
C82    C     0.25570   0.85509   0.79169   0.00000  Uiso   1.00
O83    O     0.11149   0.82121   0.97612   0.00000  Uiso   1.00
O84    O     0.10571   0.94721   0.91871   0.00000  Uiso   1.00
C85    C     0.54583   0.00904   0.21316   0.00000  Uiso   1.00
O86    O     0.27298   0.02678   0.20844   0.00000  Uiso   1.00
C87    C     0.42094   0.12579   0.31005   0.00000  Uiso   1.00
C88    C     0.32805   0.21917   0.27010   0.00000  Uiso   1.00
C89    C     0.20954   0.06077   0.34614   0.00000  Uiso   1.00
O90    O     0.44117  -0.00297   0.10908   0.00000  Uiso   1.00
C91    C     0.55940   0.20494   0.14000   0.00000  Uiso   1.00
C92    C     0.62519   0.08699   1.04227   0.00000  Uiso   1.00
C93    C     0.35915  -0.01346   0.43152   0.00000  Uiso   1.00
C94    C     0.66703   0.05971   0.87239   0.00000  Uiso   1.00
C95    C     0.51472   0.90279   0.78014   0.00000  Uiso   1.00
O96    O     0.28367   0.06617   0.97522   0.00000  Uiso   1.00
O97    O     0.45335   0.10227   1.01817   0.00000  Uiso   1.00
C98    C     0.43312   0.24999   0.97367   0.00000  Uiso   1.00
C99    C     0.35354   0.19122   1.09982   0.00000  Uiso   1.00
C100   C     0.39065   0.23238   0.58896   0.00000  Uiso   1.00
C101   C     0.49949   0.08299   0.83672   0.00000  Uiso   1.00
C102   C     0.36690   0.05159   0.61264   0.00000  Uiso   1.00
C103   C     0.52439   0.22597   0.69106   0.00000  Uiso   1.00
C104   C     0.28502   0.36674   0.09860   0.00000  Uiso   1.00
C105   C     0.37565   0.50981   0.23189   0.00000  Uiso   1.00
C106   C     0.19792   0.49073   0.17926   0.00000  Uiso   1.00
C107   C     0.25193   0.36446   0.39983   0.00000  Uiso   1.00
C108   C     0.33775   0.50077   0.53175   0.00000  Uiso   1.00
C109   C     0.45441   0.44815   0.42872   0.00000  Uiso   1.00
C110   C     0.47500   0.50867   0.68054   0.00000  Uiso   1.00
C111   C     0.48081   0.41795   0.79460   0.00000  Uiso   1.00
O112   O     0.37652   0.57237   0.11076   0.00000  Uiso   1.00
C113   C     0.46079   0.51853  -0.00457   0.00000  Uiso   1.00
C114   C     0.59067   0.68699   0.09810   0.00000  Uiso   1.00
O115   O     0.21772   0.70282   0.16590   0.00000  Uiso   1.00
O116   O     0.35377   0.87581   0.19398   0.00000  Uiso   1.00
O117   O     0.21151   0.79511   0.28479   0.00000  Uiso   1.00
O118   O     0.45211   0.69138   0.03034   0.00000  Uiso   1.00
O119   O     0.49041   0.86452   0.10035   0.00000  Uiso   1.00
O120   O     0.37932   0.56199   0.40570   0.00000  Uiso   1.00
C121   C     0.55858   0.66175   0.35520   0.00000  Uiso   1.00
O122   O     0.18951   0.71787   0.45832   0.00000  Uiso   1.00
C123   C     0.29941   0.68338   0.54002   0.00000  Uiso   1.00
O124   O     0.37951   0.86114   0.49056   0.00000  Uiso   1.00
C125   C     0.22751   0.80745   0.59750   0.00000  Uiso   1.00
O126   O     0.34519   0.75472   0.26198   0.00000  Uiso   1.00
O127   O     0.41242   0.71117   0.35920   0.00000  Uiso   1.00
O128   O     0.45311   0.88069   0.36452   0.00000  Uiso   1.00
C129   C     0.55065   0.80931   0.26176   0.00000  Uiso   1.00
C130   C     0.47990   0.66431   0.81847   0.00000  Uiso   1.00
O131   O     0.61419   0.60581   0.78792   0.00000  Uiso   1.00
C132   C     0.67210   0.78286   0.76023   0.00000  Uiso   1.00
O133   O     0.33597   0.77996   0.86496   0.00000  Uiso   1.00
O134   O     0.42532   0.79885   0.97297   0.00000  Uiso   1.00
O135   O     0.47512   0.94642   0.91968   0.00000  Uiso   1.00
O136   O     0.30383   0.86626   0.98598   0.00000  Uiso   1.00
C137   C     0.94285   0.11270   0.02831   0.00000  Uiso   1.00
O138   O     0.96287   0.10166   0.16371   0.00000  Uiso   1.00
C139   C     0.77619   1.00366   0.11912   0.00000  Uiso   1.00
O140   O     0.54294   0.02964   0.46465   0.00000  Uiso   1.00
O141   O     0.54253   0.17762   0.54823   0.00000  Uiso   1.00
O142   O     0.91757   0.18908   0.27858   0.00000  Uiso   1.00
C143   C     0.75560   0.21586   0.25539   0.00000  Uiso   1.00
C144   C     0.73131   0.06903   0.32981   0.00000  Uiso   1.00
O145   O     0.84200   0.17500   0.58461   0.00000  Uiso   1.00
O146   O     0.65322   0.10915   0.57627   0.00000  Uiso   1.00
C147   C     0.71898   0.07424   0.68520   0.00000  Uiso   1.00
C148   C     0.76636   0.26458   0.69054   0.00000  Uiso   1.00
C149   C     0.65477   0.29282  -0.03045   0.00000  Uiso   1.00
C150   C     0.81661   0.30857  -0.12488   0.00000  Uiso   1.00
C151   C     0.82614   0.30659   0.03246   0.00000  Uiso   1.00
C152   C     0.57247   0.47138   0.15838   0.00000  Uiso   1.00
C153   C     0.72539   0.62350   0.26558   0.00000  Uiso   1.00
C154   C     0.89402   0.57422   0.88658   0.00000  Uiso   1.00
O155   O     0.83260   0.45217  -0.01593   0.00000  Uiso   1.00
C156   C     0.70701   0.51749   0.95878   0.00000  Uiso   1.00
O157   O     0.70796   0.20989   0.47828   0.00000  Uiso   1.00
O158   O     0.83946   0.26146   0.38312   0.00000  Uiso   1.00
O159   O     0.86129   0.39688   0.49243   0.00000  Uiso   1.00
C160   C     0.69115   0.40856   0.57615   0.00000  Uiso   1.00
C161   C     0.73480   0.60531   0.61034   0.00000  Uiso   1.00
O162   O     0.63642   0.48005   0.69703   0.00000  Uiso   1.00
C163   C     0.83456   0.47695   0.32519   0.00000  Uiso   1.00
C164   C     0.75810   0.47406   0.16213   0.00000  Uiso   1.00
C165   C     0.62022   0.36315   0.31832   0.00000  Uiso   1.00
O166   O     0.72028   0.32836   0.40366   0.00000  Uiso   1.00
C167   C     0.70040   0.49643   0.44017   0.00000  Uiso   1.00
O168   O     0.96659   0.56891   0.58483   0.00000  Uiso   1.00
O169   O     0.82809   0.53893   0.67912   0.00000  Uiso   1.00
C170   C     0.97805   0.50444   0.70123   0.00000  Uiso   1.00
O171   O     0.75467   0.62157   0.12561   0.00000  Uiso   1.00
O172   O     0.87873   0.63069   0.02916   0.00000  Uiso   1.00
O173   O     0.94598   0.72014   0.15027   0.00000  Uiso   1.00
O174   O     0.94017   0.82475   0.96424   0.00000  Uiso   1.00
O175   O     0.86448   0.77888   0.08046   0.00000  Uiso   1.00
O176   O     0.91676   0.94708   0.06543   0.00000  Uiso   1.00
O177   O     0.49347   0.72772   0.47416   0.00000  Uiso   1.00
C178   C     0.66436   0.90299   0.48558   0.00000  Uiso   1.00
C179   C     0.54980   0.80629   0.61238   0.00000  Uiso   1.00
O180   O     0.94201   0.83396   0.26757   0.00000  Uiso   1.00
C181   C     0.80470   0.87152   0.21517   0.00000  Uiso   1.00
C182   C     0.81247   0.86341   0.36045   0.00000  Uiso   1.00
C183   C     0.97799   1.02798   0.31186   0.00000  Uiso   1.00
C184   C     0.84874   0.72979   0.78960   0.00000  Uiso   1.00
O185   O     0.99627   0.68714   0.71783   0.00000  Uiso   1.00
O186   O     1.02776   0.77977   0.85110   0.00000  Uiso   1.00
O187   O     0.64946   0.73817   0.89940   0.00000  Uiso   1.00
O188   O     0.76042   0.80599   1.00218   0.00000  Uiso   1.00
C189   C     0.77481   0.92169   0.91103   0.00000  Uiso   1.00
O190   O     0.60998   0.83713   0.99965   0.00000  Uiso   1.00
C191   C     1.13222   1.00702   0.67696   0.00000  Uiso   1.00
C192   C     0.65571   0.72247   0.51735   0.00000  Uiso   1.00
C193   C     0.91370   0.87401   0.65989   0.00000  Uiso   1.00
O194   O     1.03013   0.86019   0.75132   0.00000  Uiso   1.00
C195   C     0.99946   1.02239   0.79401   0.00000  Uiso   1.00
H196   H     0.10809   0.00016   0.08377   0.00000  Uiso   1.00
H197   H     0.15326   0.08688   0.16024   0.00000  Uiso   1.00
H198   H     0.04320  -0.02036   0.16493   0.00000  Uiso   1.00
H199   H     0.12374   0.32134   0.28759   0.00000  Uiso   1.00
H200   H     0.17216   0.27968   0.21076   0.00000  Uiso   1.00
H201   H     0.11993   0.21364   0.27853   0.00000  Uiso   1.00
H202   H    -0.09663   0.23645   0.12927   0.00000  Uiso   1.00
H203   H     0.02930   0.32022   0.13049   0.00000  Uiso   1.00
H204   H    -0.03839   0.33052   0.19526   0.00000  Uiso   1.00
H205   H    -0.02724  -0.05989   0.49398   0.00000  Uiso   1.00
H206   H     0.01340  -0.04202   0.40534   0.00000  Uiso   1.00
H207   H     0.10130   0.01129   0.47669   0.00000  Uiso   1.00
H208   H     0.07217  -0.22918   0.52598   0.00000  Uiso   1.00
H209   H     0.02643  -0.15512   0.57087   0.00000  Uiso   1.00
H210   H     0.15074  -0.10075   0.53899   0.00000  Uiso   1.00
H211   H    -0.12361   0.71653   0.38273   0.00000  Uiso   1.00
H212   H    -0.13235   0.74308   0.47327   0.00000  Uiso   1.00
H213   H    -0.07569   0.67598   0.43835   0.00000  Uiso   1.00
H214   H    -0.01636   0.25787   0.48078   0.00000  Uiso   1.00
H215   H    -0.01853   0.14148   0.46559   0.00000  Uiso   1.00
H216   H     0.08396   0.24974   0.51218   0.00000  Uiso   1.00
H217   H     0.89834   0.02622   0.57799   0.00000  Uiso   1.00
H218   H     0.94054   0.09064   0.66100   0.00000  Uiso   1.00
H219   H     1.02921   0.09065   0.59941   0.00000  Uiso   1.00
H220   H     0.32895   1.09679   0.84448   0.00000  Uiso   1.00
H221   H     0.23225   1.11908   0.82653   0.00000  Uiso   1.00
H222   H     0.21488   1.00582   0.80314   0.00000  Uiso   1.00
H223   H     0.09812   0.13213   0.93591   0.00000  Uiso   1.00
H224   H     0.21424   0.20767   0.97201   0.00000  Uiso   1.00
H225   H     0.12225   0.12713   1.01851   0.00000  Uiso   1.00
H226   H    -0.01637   0.31348   0.79767   0.00000  Uiso   1.00
H227   H     0.09775   0.32222   0.82717   0.00000  Uiso   1.00
H228   H    -0.00042   0.21459   0.78373   0.00000  Uiso   1.00
H229   H     0.17638   0.46940   0.66156   0.00000  Uiso   1.00
H230   H     0.24417   0.46431   0.73301   0.00000  Uiso   1.00
H231   H     0.14262   0.48132   0.75114   0.00000  Uiso   1.00
H232   H     0.19651   0.25867   0.62377   0.00000  Uiso   1.00
H233   H     0.14312   0.19341   0.69432   0.00000  Uiso   1.00
H234   H     0.24413   0.30212   0.71029   0.00000  Uiso   1.00
H235   H     0.21667   0.42131   0.01968   0.00000  Uiso   1.00
H236   H     0.17278   0.37690  -0.06331   0.00000  Uiso   1.00
H237   H     0.08303   0.35910   0.01085   0.00000  Uiso   1.00
H238   H     0.04450   0.46694   0.88570   0.00000  Uiso   1.00
H239   H     0.04144   0.55347   0.95453   0.00000  Uiso   1.00
H240   H    -0.00379   0.43525   0.96558   0.00000  Uiso   1.00
H241   H     0.34521   0.61008   0.93388   0.00000  Uiso   1.00
H242   H     0.25857   0.62296   0.89289   0.00000  Uiso   1.00
H243   H     0.26061   0.50300   0.86928   0.00000  Uiso   1.00
H244   H     0.10623   0.46430   0.48217   0.00000  Uiso   1.00
H245   H     0.02885   0.40594   0.54902   0.00000  Uiso   1.00
H246   H     0.11341   0.52638   0.56557   0.00000  Uiso   1.00
H247   H     0.00650   0.60688   0.16406   0.00000  Uiso   1.00
H248   H     0.02258   0.51290   0.12477   0.00000  Uiso   1.00
H249   H    -0.01948   0.56466   0.06997   0.00000  Uiso   1.00
H250   H     0.21608   0.59825   0.32716   0.00000  Uiso   1.00
H251   H     0.10096   0.49214   0.32351   0.00000  Uiso   1.00
H252   H     0.18720   0.52723   0.39489   0.00000  Uiso   1.00
H253   H     0.09136   0.65880   0.78612   0.00000  Uiso   1.00
H254   H     0.12606   0.70901   0.87427   0.00000  Uiso   1.00
H255   H     0.13150   0.60363   0.83876   0.00000  Uiso   1.00
H256   H     0.23615   0.63602   0.69566   0.00000  Uiso   1.00
H257   H     0.34660   0.67351   0.73535   0.00000  Uiso   1.00
H258   H     0.33625   0.75196   0.69592   0.00000  Uiso   1.00
H259   H     0.19682   0.82979   0.75330   0.00000  Uiso   1.00
H260   H     0.32371   0.90598   0.76823   0.00000  Uiso   1.00
H261   H     0.23909   0.89025   0.83772   0.00000  Uiso   1.00
H262   H     0.51408  -0.00573   0.26335   0.00000  Uiso   1.00
H263   H     0.56581   0.08168   0.21280   0.00000  Uiso   1.00
H264   H     0.61002   0.00277   0.20018   0.00000  Uiso   1.00
H265   H     0.48214   0.15392   0.27192   0.00000  Uiso   1.00
H266   H     0.41070   0.05667   0.31185   0.00000  Uiso   1.00
H267   H     0.44411   0.17116   0.35711   0.00000  Uiso   1.00
H268   H     0.40087   0.25774   0.24172   0.00000  Uiso   1.00
H269   H     0.33311   0.26159   0.32216   0.00000  Uiso   1.00
H270   H     0.27028   0.21707   0.24144   0.00000  Uiso   1.00
H271   H     0.14348  -0.00618   0.32647   0.00000  Uiso   1.00
H272   H     0.18416   0.11455   0.36671   0.00000  Uiso   1.00
H273   H     0.24504   0.05600   0.38730   0.00000  Uiso   1.00
H274   H     0.58334   0.26936   0.11586   0.00000  Uiso   1.00
H275   H     0.62576   0.21360   0.16153   0.00000  Uiso   1.00
H276   H     0.49864   0.19641   0.17364   0.00000  Uiso   1.00
H277   H     0.65190   0.12602   1.00068   0.00000  Uiso   1.00
H278   H     0.61292   0.01617   1.01806   0.00000  Uiso   1.00
H279   H     0.67693   0.11022   1.08483   0.00000  Uiso   1.00
H280   H     0.30540  -0.04615   0.38847   0.00000  Uiso   1.00
H281   H     0.40788   0.06594   0.43622   0.00000  Uiso   1.00
H282   H     0.31154  -0.02706   0.47423   0.00000  Uiso   1.00
H283   H     0.70565   0.04576   0.82721   0.00000  Uiso   1.00
H284   H     0.69657   0.04885   0.91508   0.00000  Uiso   1.00
H285   H     0.69565   0.14097   0.88737   0.00000  Uiso   1.00
H286   H     0.49583   0.83557   0.79562   0.00000  Uiso   1.00
H287   H     0.58541   0.92501   0.75483   0.00000  Uiso   1.00
H288   H     0.46344   0.89871   0.74432   0.00000  Uiso   1.00
H289   H     0.37156   0.25184   0.95941   0.00000  Uiso   1.00
H290   H     0.47206   0.24487   0.92293   0.00000  Uiso   1.00
H291   H     0.47916   0.31542   1.01003   0.00000  Uiso   1.00
H292   H     0.33848   0.14425   1.13625   0.00000  Uiso   1.00
H293   H     0.29058   0.19582   1.09063   0.00000  Uiso   1.00
H294   H     0.41835   0.25856   1.11667   0.00000  Uiso   1.00
H295   H     0.35274   0.24320   0.63784   0.00000  Uiso   1.00
H296   H     0.33154   0.18303   0.55115   0.00000  Uiso   1.00
H297   H     0.44498   0.30206   0.57105   0.00000  Uiso   1.00
H298   H     0.56697   0.14009   0.81813   0.00000  Uiso   1.00
H299   H     0.49116   0.12443   0.88393   0.00000  Uiso   1.00
H300   H     0.42731   0.04690   0.81080   0.00000  Uiso   1.00
H301   H     0.39224  -0.00127   0.60413   0.00000  Uiso   1.00
H302   H     0.30333   0.02589   0.57940   0.00000  Uiso   1.00
H303   H     0.33226   0.05586   0.66393   0.00000  Uiso   1.00
H304   H     0.58821   0.29647   0.69184   0.00000  Uiso   1.00
H305   H     0.54638   0.17830   0.70294   0.00000  Uiso   1.00
H306   H     0.46950   0.22936   0.72806   0.00000  Uiso   1.00
H307   H     0.32137   0.36291   0.04687   0.00000  Uiso   1.00
H308   H     0.20491   0.31535   0.09313   0.00000  Uiso   1.00
H309   H     0.30336   0.32916   0.12901   0.00000  Uiso   1.00
H310   H     0.38465   0.45070   0.23549   0.00000  Uiso   1.00
H311   H     0.34092   0.53278   0.27812   0.00000  Uiso   1.00
H312   H     0.44890   0.57576   0.22965   0.00000  Uiso   1.00
H313   H     0.15370   0.43442   0.20859   0.00000  Uiso   1.00
H314   H     0.16465   0.49131   0.13520   0.00000  Uiso   1.00
H315   H     0.22448   0.55635   0.21697   0.00000  Uiso   1.00
H316   H     0.25696   0.35048   0.34368   0.00000  Uiso   1.00
H317   H     0.18342   0.35734   0.41339   0.00000  Uiso   1.00
H318   H     0.25876   0.30765   0.41563   0.00000  Uiso   1.00
H319   H     0.36103   0.46381   0.55851   0.00000  Uiso   1.00
H320   H     0.25598   0.47440   0.54035   0.00000  Uiso   1.00
H321   H     0.38176   0.57996   0.55298   0.00000  Uiso   1.00
H322   H     0.47935   0.44328   0.37322   0.00000  Uiso   1.00
H323   H     0.43154   0.38247   0.44806   0.00000  Uiso   1.00
H324   H     0.51586   0.50545   0.46435   0.00000  Uiso   1.00
H325   H     0.40175   0.49040   0.69930   0.00000  Uiso   1.00
H326   H     0.46385   0.45530   0.63443   0.00000  Uiso   1.00
H327   H     0.51303   0.57862   0.66426   0.00000  Uiso   1.00
H328   H     0.44257   0.44988   0.83207   0.00000  Uiso   1.00
H329   H     0.52315   0.39724   0.81829   0.00000  Uiso   1.00
H330   H     0.42066   0.35200   0.76386   0.00000  Uiso   1.00
H331   H     0.38673   0.47073  -0.02573   0.00000  Uiso   1.00
H332   H     0.49110   0.48292   0.02104   0.00000  Uiso   1.00
H333   H     0.51156   0.55191  -0.04692   0.00000  Uiso   1.00
H334   H     0.64765   0.68308   0.06355   0.00000  Uiso   1.00
H335   H     0.59276   0.65728   0.13687   0.00000  Uiso   1.00
H336   H     0.62445   0.76767   0.11989   0.00000  Uiso   1.00
H337   H     0.61053   0.73299   0.35118   0.00000  Uiso   1.00
H338   H     0.53818   0.60940   0.31065   0.00000  Uiso   1.00
H339   H     0.58114   0.63264   0.39090   0.00000  Uiso   1.00
H340   H     0.28485   0.62302   0.49879   0.00000  Uiso   1.00
H341   H     0.25622   0.66122   0.58514   0.00000  Uiso   1.00
H342   H     0.37596   0.71979   0.55445   0.00000  Uiso   1.00
H343   H     0.22376   0.86711   0.59898   0.00000  Uiso   1.00
H344   H     0.27307   0.82242   0.64104   0.00000  Uiso   1.00
H345   H     0.15415   0.75117   0.60776   0.00000  Uiso   1.00
H346   H     0.61070   0.83861   0.29766   0.00000  Uiso   1.00
H347   H     0.56386   0.86535   0.23432   0.00000  Uiso   1.00
H348   H     0.53716   0.74383   0.23407   0.00000  Uiso   1.00
H349   H     0.43149   0.59284   0.83096   0.00000  Uiso   1.00
H350   H     0.46281   0.65059   0.76375   0.00000  Uiso   1.00
H351   H     0.46149   0.71194   0.85589   0.00000  Uiso   1.00
H352   H     0.64635   0.74653   0.70700   0.00000  Uiso   1.00
H353   H     0.75619   0.82042   0.76194   0.00000  Uiso   1.00
H354   H     0.65757   0.84114   0.76978   0.00000  Uiso   1.00
H355   H     0.89394   0.14329   0.02936   0.00000  Uiso   1.00
H356   H     0.94089   0.07089  -0.02364   0.00000  Uiso   1.00
H357   H     1.01650   0.17335   0.04216   0.00000  Uiso   1.00
H358   H     0.73776   1.00827   0.07797   0.00000  Uiso   1.00
H359   H     0.77534   1.05029   0.16311   0.00000  Uiso   1.00
H360   H     0.73420   0.92779   0.12748   0.00000  Uiso   1.00
H361   H     0.73844   0.17808   0.20097   0.00000  Uiso   1.00
H362   H     0.80120   0.29109   0.25383   0.00000  Uiso   1.00
H363   H     0.68759   0.20914   0.28208   0.00000  Uiso   1.00
H364   H     0.70886   0.01330   0.28651   0.00000  Uiso   1.00
H365   H     0.66337   0.06676   0.34686   0.00000  Uiso   1.00
H366   H     0.75542   0.04855   0.37214   0.00000  Uiso   1.00
H367   H     0.65120   0.06724   0.71326   0.00000  Uiso   1.00
H368   H     0.77494   0.11054   0.72964   0.00000  Uiso   1.00
H369   H     0.72369   0.00680   0.66061   0.00000  Uiso   1.00
H370   H     0.70780   0.24269   0.72774   0.00000  Uiso   1.00
H371   H     0.76826   0.31729   0.66534   0.00000  Uiso   1.00
H372   H     0.84061   0.29337   0.71432   0.00000  Uiso   1.00
H373   H     0.61707   0.21665  -0.05308   0.00000  Uiso   1.00
H374   H     0.63967   0.32178  -0.06744   0.00000  Uiso   1.00
H375   H     0.62395   0.31142   0.01858   0.00000  Uiso   1.00
H376   H     0.88799   0.36638  -0.13897   0.00000  Uiso   1.00
H377   H     0.75698   0.29265  -0.15761   0.00000  Uiso   1.00
H378   H     0.83606   0.25195  -0.12874   0.00000  Uiso   1.00
H379   H     0.89423   0.36705   0.06091   0.00000  Uiso   1.00
H380   H     0.83106   0.24152   0.00721   0.00000  Uiso   1.00
H381   H     0.76851   0.28708   0.07379   0.00000  Uiso   1.00
H382   H     0.54091   0.51611   0.17339   0.00000  Uiso   1.00
H383   H     0.53490   0.41246   0.18489   0.00000  Uiso   1.00
H384   H     0.55894   0.43755   0.10467   0.00000  Uiso   1.00
H385   H     0.68112   0.57640   0.30411   0.00000  Uiso   1.00
H386   H     0.70336   0.67468   0.26121   0.00000  Uiso   1.00
H387   H     0.79940   0.66255   0.27785   0.00000  Uiso   1.00
H388   H     0.97306   0.60832   0.89114   0.00000  Uiso   1.00
H389   H     0.87911   0.63307   0.88015   0.00000  Uiso   1.00
H390   H     0.86671   0.51590   0.84501   0.00000  Uiso   1.00
H391   H     0.66737   0.45852   0.91843   0.00000  Uiso   1.00
H392   H     0.71182   0.58480   0.95840   0.00000  Uiso   1.00
H393   H     0.67644   0.50521   1.00995   0.00000  Uiso   1.00
H394   H     0.69888   0.35459   0.59454   0.00000  Uiso   1.00
H395   H     0.74840   0.44213   0.53947   0.00000  Uiso   1.00
H396   H     0.61520   0.37042   0.55430   0.00000  Uiso   1.00
H397   H     0.73722   0.66128   0.64831   0.00000  Uiso   1.00
H398   H     0.67368   0.58259   0.57912   0.00000  Uiso   1.00
H399   H     0.80105   0.63484   0.57711   0.00000  Uiso   1.00
H400   H     0.82174   0.43710   0.27223   0.00000  Uiso   1.00
H401   H     0.89860   0.47476   0.34819   0.00000  Uiso   1.00
H402   H     0.85377   0.55363   0.32204   0.00000  Uiso   1.00
H403   H     0.71501   0.41233   0.18939   0.00000  Uiso   1.00
H404   H     0.83725   0.51078   0.18048   0.00000  Uiso   1.00
H405   H     0.74951   0.44066   0.10795   0.00000  Uiso   1.00
H406   H     0.61901   0.31074   0.27590   0.00000  Uiso   1.00
H407   H     0.61784   0.41984   0.30357   0.00000  Uiso   1.00
H408   H     0.55370   0.33054   0.34833   0.00000  Uiso   1.00
H409   H     0.63537   0.46083   0.47338   0.00000  Uiso   1.00
H410   H     0.67800   0.53831   0.41459   0.00000  Uiso   1.00
H411   H     0.76537   0.54991   0.47705   0.00000  Uiso   1.00
H412   H     0.93417   0.43611   0.66476   0.00000  Uiso   1.00
H413   H     0.96117   0.50102   0.75526   0.00000  Uiso   1.00
H414   H     1.05970   0.52684   0.69502   0.00000  Uiso   1.00
H415   H     0.62767   0.94729   0.50032   0.00000  Uiso   1.00
H416   H     0.65224   0.87679   0.42882   0.00000  Uiso   1.00
H417   H     0.74570   0.94327   0.49971   0.00000  Uiso   1.00
H418   H     0.49716   0.73345   0.62086   0.00000  Uiso   1.00
H419   H     0.50829   0.84620   0.62202   0.00000  Uiso   1.00
H420   H     0.61621   0.84112   0.64098   0.00000  Uiso   1.00
H421   H     0.75747   0.79518   0.19157   0.00000  Uiso   1.00
H422   H     0.85559   0.91388   0.17795   0.00000  Uiso   1.00
H423   H     0.76307   0.91121   0.23540   0.00000  Uiso   1.00
H424   H     0.85093   0.91087   0.40770   0.00000  Uiso   1.00
H425   H     0.77710   0.78703   0.36008   0.00000  Uiso   1.00
H426   H     0.74901   0.87375   0.35088   0.00000  Uiso   1.00
H427   H     0.93651   1.05838   0.29209   0.00000  Uiso   1.00
H428   H     1.04222   1.04625   0.28440   0.00000  Uiso   1.00
H429   H     0.98782   1.05170   0.36720   0.00000  Uiso   1.00
H430   H     0.79751   0.65424   0.79591   0.00000  Uiso   1.00
H431   H     0.81958   0.73029   0.74190   0.00000  Uiso   1.00
H432   H     0.84667   0.78616   0.83060   0.00000  Uiso   1.00
H433   H     0.84079   0.91657   0.89015   0.00000  Uiso   1.00
H434   H     0.78476   0.98179   0.95272   0.00000  Uiso   1.00
H435   H     0.73384   0.92707   0.86924   0.00000  Uiso   1.00
H436   H     1.11943   1.02770   0.63065   0.00000  Uiso   1.00
H437   H     1.15807   0.95497   0.66224   0.00000  Uiso   1.00
H438   H     1.19335   1.06766   0.70531   0.00000  Uiso   1.00
H439   H     0.60144   0.64764   0.52252   0.00000  Uiso   1.00
H440   H     0.71118   0.75222   0.56031   0.00000  Uiso   1.00
H441   H     0.69133   0.72521   0.46577   0.00000  Uiso   1.00
H442   H     0.84983   0.87921   0.68233   0.00000  Uiso   1.00
H443   H     0.88310   0.79523   0.64224   0.00000  Uiso   1.00
H444   H     0.94038   0.90844   0.61276   0.00000  Uiso   1.00
H445   H     0.92151   1.00783   0.78928   0.00000  Uiso   1.00
H446   H     1.06200   1.09384   0.78938   0.00000  Uiso   1.00
H447   H     1.01613   1.01166   0.84027   0.00000  Uiso   1.00
loop_
_geom_bond_atom_site_label_1
_geom_bond_atom_site_label_2
_geom_bond_distance
_geom_bond_site_symmetry_2
_ccdc_geom_bond_type
Si1    C52     1.798   .     S
Si1    O86     1.579   .     S
Si1    O72     1.595   1_545 S
Si1    O74     1.573   1_545 S
Si2    C53     1.811   .     S
Si2    C54     1.879   .     S
Si2    O138    1.634   1_455 S
Si2    O142    1.600   1_455 S
Si3    C55     1.892   .     S
Si3    C56     1.879   .     S
Si3    C57     1.838   1_545 S
Si3    O79     1.578   1_545 S
Si4    C58     1.838   .     S
Si4    O61     1.533   .     S
Si4    C59     1.889   1_455 S
Si4    O145    1.625   1_455 S
Si5    C62     1.915   .     S
Si5    O96     1.616   .     S
Si5    C60     1.816   1_545 S
Si5    O84     1.598   1_545 S
Si6    O61     1.592   .     S
Si6    C63     1.886   .     S
Si6    C64     1.888   .     S
Si6    C65     1.896   .     S
Si7    C66     1.930   .     S
Si7    O71     1.630   .     S
Si7    C67     1.839   1_554 S
Si7    C68     1.809   1_554 S
Si8    C69     1.850   .     S
Si8    O75     1.669   .     S
Si8    O159    1.671   1_455 S
Si8    O168    1.666   1_455 S
Si9    C70     1.938   .     S
Si9    O71     1.629   .     S
Si9    O73     1.624   .     S
Si9    O115    1.575   .     S
Si10   O72     1.628   .     S
Si10   O77     1.626   .     S
Si10   O173    1.596   1_455 S
Si10   O180    1.624   1_455 S
Si11   O73     1.651   .     S
Si11   O74     1.581   .     S
Si11   O83     1.663   1_554 S
Si11   O136    1.655   1_554 S
Si12   O75     1.660   .     S
Si12   C76     1.862   .     S
Si12   O78     1.589   .     S
Si12   O122    1.639   .     S
Si13   O77     1.563   .     S
Si13   O78     1.611   .     S
Si13   O79     1.584   .     S
Si13   O117    1.577   .     S
Si14   C80     1.805   .     S
Si14   C81     1.862   .     S
Si14   C82     1.816   .     S
Si14   O133    1.584   .     S
Si15   O83     1.665   .     S
Si15   O84     1.539   .     S
Si15   O174    1.669   1_455 S
Si15   O186    1.651   1_455 S
Si16   C85     1.800   .     S
Si16   O90     1.578   .     S
Si16   O116    1.638   1_545 S
Si16   O119    1.626   1_545 S
Si17   O86     1.629   .     S
Si17   C87     1.794   .     S
Si17   C88     1.830   .     S
Si17   C89     1.867   .     S
Si18   O90     1.612   .     S
Si18   C91     1.914   .     S
Si18   C92     1.900   1_554 S
Si18   O97     1.612   1_554 S
Si19   C93     1.845   .     S
Si19   O140    1.633   .     S
Si19   O124    1.613   1_545 S
Si19   O128    1.665   1_545 S
Si20   C94     1.815   .     S
Si20   C101    1.900   .     S
Si20   C95     1.882   1_545 S
Si20   O135    1.611   1_545 S
Si21   O96     1.552   .     S
Si21   O97     1.603   .     S
Si21   C98     1.877   .     S
Si21   C99     1.858   .     S
Si22   C100    1.870   .     S
Si22   C102    1.864   .     S
Si22   C103    1.874   .     S
Si22   O141    1.634   .     S
Si23   C104    1.914   .     S
Si23   C105    1.852   .     S
Si23   C106    1.850   .     S
Si23   O112    1.609   .     S
Si24   C107    1.781   .     S
Si24   C108    1.833   .     S
Si24   C109    1.820   .     S
Si24   O120    1.608   .     S
Si25   C110    1.910   .     S
Si25   C111    1.849   .     S
Si25   O131    1.582   .     S
Si25   O162    1.588   .     S
Si26   O112    1.573   .     S
Si26   C113    1.897   .     S
Si26   C114    1.835   .     S
Si26   O118    1.567   .     S
Si27   O115    1.570   .     S
Si27   O116    1.602   .     S
Si27   O117    1.589   .     S
Si27   O126    1.585   .     S
Si28   O118    1.609   .     S
Si28   O119    1.665   .     S
Si28   O134    1.621   1_554 S
Si28   O190    1.623   1_554 S
Si29   O120    1.542   .     S
Si29   C121    1.809   .     S
Si29   O127    1.635   .     S
Si29   O177    1.567   .     S
Si30   O122    1.615   .     S
Si30   C123    1.850   .     S
Si30   O124    1.668   .     S
Si30   C125    1.874   .     S
Si31   O126    1.640   .     S
Si31   O127    1.590   .     S
Si31   O128    1.574   .     S
Si31   C129    1.900   .     S
Si32   C130    1.829   .     S
Si32   O131    1.560   .     S
Si32   C132    1.877   .     S
Si32   O187    1.639   .     S
Si33   O133    1.615   .     S
Si33   O134    1.628   .     S
Si33   O135    1.583   .     S
Si33   O136    1.624   .     S
Si34   C137    1.853   .     S
Si34   O138    1.616   .     S
Si34   C139    1.827   1_545 S
Si34   O176    1.606   1_545 S
Si35   O140    1.647   .     S
Si35   O141    1.626   .     S
Si35   O146    1.621   .     S
Si35   O157    1.682   .     S
Si36   O142    1.630   .     S
Si36   C143    1.864   .     S
Si36   C144    1.857   .     S
Si36   O158    1.574   .     S
Si37   O145    1.585   .     S
Si37   O146    1.590   .     S
Si37   C147    1.800   .     S
Si37   C148    1.925   .     S
Si38   C149    1.807   .     S
Si38   C150    1.855   .     S
Si38   C151    1.882   .     S
Si38   O155    1.542   .     S
Si39   C152    1.852   .     S
Si39   C153    1.862   .     S
Si39   C164    1.803   .     S
Si39   O171    1.600   .     S
Si40   O155    1.585   .     S
Si40   O172    1.586   .     S
Si40   C154    1.905   1_554 S
Si40   C156    1.792   1_554 S
Si41   O157    1.670   .     S
Si41   O158    1.610   .     S
Si41   O159    1.601   .     S
Si41   O166    1.627   .     S
Si42   C160    1.837   .     S
Si42   C161    1.813   .     S
Si42   O162    1.552   .     S
Si42   O169    1.618   .     S
Si43   C163    1.860   .     S
Si43   C165    1.746   .     S
Si43   O166    1.634   .     S
Si43   C167    1.852   .     S
Si44   O168    1.667   .     S
Si44   O169    1.611   .     S
Si44   C170    1.879   .     S
Si44   O185    1.634   .     S
Si45   O171    1.610   .     S
Si45   O172    1.553   .     S
Si45   O173    1.618   .     S
Si45   O175    1.579   .     S
Si46   O175    1.578   .     S
Si46   O176    1.606   .     S
Si46   O174    1.644   1_554 S
Si46   O188    1.627   1_554 S
Si47   O177    1.602   .     S
Si47   C178    1.863   .     S
Si47   C179    1.889   .     S
Si47   C192    1.891   .     S
Si48   O180    1.577   .     S
Si48   C181    1.866   .     S
Si48   C182    1.837   .     S
Si48   C183    1.918   .     S
Si49   C184    1.866   .     S
Si49   O185    1.646   .     S
Si49   O186    1.625   .     S
Si49   O194    1.580   .     S
Si50   O187    1.525   .     S
Si50   O188    1.591   .     S
Si50   C189    1.843   .     S
Si50   O190    1.621   .     S
Si51   C191    1.865   .     S
Si51   C193    1.841   .     S
Si51   O194    1.607   .     S
Si51   C195    1.924   .     S
C52    H196    1.120   .     S
C52    H197    1.065   .     S
C52    H198    1.114   .     S
C53    H199    1.093   .     S
C53    H200    1.145   .     S
C53    H201    1.110   .     S
C54    H202    1.148   .     S
C54    H203    1.076   .     S
C54    H204    1.060   .     S
C55    H205    1.111   .     S
C55    H206    1.081   .     S
C55    H207    1.106   .     S
C56    H208    1.073   .     S
C56    H209    1.145   .     S
C56    H210    1.120   .     S
C57    H211    1.060   .     S
C57    H212    1.113   .     S
C57    H213    1.117   .     S
C57    Si3     1.838   1_565 S
C58    H214    1.126   .     S
C58    H215    1.131   .     S
C58    H216    1.088   .     S
C59    H217    1.090   .     S
C59    H218    1.095   .     S
C59    H219    1.102   .     S
C59    Si4     1.889   1_655 S
C60    H220    1.110   .     S
C60    H221    1.101   .     S
C60    H222    1.047   .     S
C60    Si5     1.816   1_565 S
C62    H223    1.076   .     S
C62    H224    1.068   .     S
C62    H225    1.135   .     S
C63    H226    1.126   .     S
C63    H227    1.099   .     S
C63    H228    1.061   .     S
C64    H229    1.141   .     S
C64    H230    1.105   .     S
C64    H231    1.089   .     S
C65    H232    1.156   .     S
C65    H233    1.065   .     S
C65    H234    1.080   .     S
C66    H235    1.070   .     S
C66    H236    1.127   .     S
C66    H237    1.152   .     S
C67    H238    1.091   .     S
C67    H239    1.122   .     S
C67    H240    1.127   .     S
C67    Si7     1.839   1_556 S
C68    H241    1.115   .     S
C68    H242    1.109   .     S
C68    H243    1.167   .     S
C68    Si7     1.809   1_556 S
C69    H244    1.092   .     S
C69    H245    1.105   .     S
C69    H246    1.065   .     S
C70    H247    1.133   .     S
C70    H248    1.073   .     S
C70    H249    1.128   .     S
O72    Si1     1.595   1_565 S
O74    Si1     1.573   1_565 S
C76    H250    1.082   .     S
C76    H251    1.122   .     S
C76    H252    1.150   .     S
O79    Si3     1.578   1_565 S
C80    H253    1.117   .     S
C80    H254    1.106   .     S
C80    H255    1.113   .     S
C81    H256    1.076   .     S
C81    H257    1.073   .     S
C81    H258    1.081   .     S
C82    H259    1.116   .     S
C82    H260    1.110   .     S
C82    H261    1.067   .     S
O83    Si11    1.663   1_556 S
O84    Si5     1.598   1_565 S
C85    H262    1.097   .     S
C85    H263    1.086   .     S
C85    H264    1.070   .     S
C87    H265    1.130   .     S
C87    H266    1.087   .     S
C87    H267    1.040   .     S
C88    H268    1.152   .     S
C88    H269    1.114   .     S
C88    H270    1.110   .     S
C89    H271    1.095   .     S
C89    H272    1.143   .     S
C89    H273    1.083   .     S
C91    H274    1.141   .     S
C91    H275    1.104   .     S
C91    H276    1.078   .     S
C92    H277    1.086   .     S
C92    H278    1.099   .     S
C92    H279    1.108   .     S
C92    Si18    1.900   1_556 S
C93    H280    1.115   .     S
C93    H281    1.130   .     S
C93    H282    1.061   .     S
C94    H283    1.089   .     S
C94    H284    1.105   .     S
C94    H285    1.166   .     S
C95    H286    1.109   .     S
C95    H287    1.087   .     S
C95    H288    1.105   .     S
C95    Si20    1.882   1_565 S
O97    Si18    1.612   1_556 S
C98    H289    1.058   .     S
C98    H290    1.144   .     S
C98    H291    1.101   .     S
C99    H292    1.106   .     S
C99    H293    1.072   .     S
C99    H294    1.077   .     S
C100   H295    1.125   .     S
C100   H296    1.105   .     S
C100   H297    1.146   .     S
C101   H298    1.103   .     S
C101   H299    1.085   .     S
C101   H300    1.105   .     S
C102   H301    1.116   .     S
C102   H302    1.102   .     S
C102   H303    1.120   .     S
C103   H304    1.088   .     S
C103   H305    1.090   .     S
C103   H306    1.097   .     S
C104   H307    1.138   .     S
C104   H308    1.109   .     S
C104   H309    1.111   .     S
C105   H310    1.082   .     S
C105   H311    1.124   .     S
C105   H312    1.123   .     S
C106   H313    1.095   .     S
C106   H314    1.079   .     S
C106   H315    1.090   .     S
C107   H316    1.104   .     S
C107   H317    1.038   .     S
C107   H318    1.118   .     S
C108   H319    1.103   .     S
C108   H320    1.138   .     S
C108   H321    1.137   .     S
C109   H322    1.143   .     S
C109   H323    1.109   .     S
C109   H324    1.128   .     S
C110   H325    1.082   .     S
C110   H326    1.096   .     S
C110   H327    1.112   .     S
C111   H328    1.129   .     S
C111   H329    1.079   .     S
C111   H330    1.122   .     S
C113   H331    1.091   .     S
C113   H332    1.148   .     S
C113   H333    1.132   .     S
C114   H334    1.097   .     S
C114   H335    1.019   .     S
C114   H336    1.162   .     S
O116   Si16    1.638   1_565 S
O119   Si16    1.626   1_565 S
C121   H337    1.060   .     S
C121   H338    1.051   .     S
C121   H339    1.120   .     S
C123   H340    1.094   .     S
C123   H341    1.086   .     S
C123   H342    1.078   .     S
O124   Si19    1.613   1_565 S
C125   H343    1.020   .     S
C125   H344    1.095   .     S
C125   H345    1.090   .     S
O128   Si19    1.665   1_565 S
C129   H346    1.084   .     S
C129   H347    1.104   .     S
C129   H348    1.036   .     S
C130   H349    1.107   .     S
C130   H350    1.106   .     S
C130   H351    1.101   .     S
C132   H352    1.112   .     S
C132   H353    1.144   .     S
C132   H354    1.082   .     S
O134   Si28    1.621   1_556 S
O135   Si20    1.611   1_565 S
O136   Si11    1.655   1_556 S
C137   H355    1.118   .     S
C137   H356    1.117   .     S
C137   H357    1.095   .     S
O138   Si2     1.634   1_655 S
C139   H358    1.112   .     S
C139   H359    1.048   .     S
C139   H360    1.132   .     S
C139   Si34    1.827   1_565 S
O142   Si2     1.600   1_655 S
C143   H361    1.121   .     S
C143   H362    1.088   .     S
C143   H363    1.111   .     S
C144   H364    1.061   .     S
C144   H365    1.075   .     S
C144   H366    1.144   .     S
O145   Si4     1.625   1_655 S
C147   H367    1.118   .     S
C147   H368    1.153   .     S
C147   H369    1.163   .     S
C148   H370    1.084   .     S
C148   H371    1.091   .     S
C148   H372    1.130   .     S
C149   H373    1.101   .     S
C149   H374    1.072   .     S
C149   H375    1.106   .     S
C150   H376    1.105   .     S
C150   H377    1.090   .     S
C150   H378    1.118   .     S
C151   H379    1.129   .     S
C151   H380    1.132   .     S
C151   H381    1.131   .     S
C152   H382    1.070   .     S
C152   H383    1.079   .     S
C152   H384    1.091   .     S
C153   H385    1.136   .     S
C153   H386    1.094   .     S
C153   H387    1.032   .     S
C154   H388    1.080   .     S
C154   H389    1.153   .     S
C154   H390    1.062   .     S
C154   Si40    1.905   1_556 S
C156   H391    1.073   .     S
C156   H392    1.087   .     S
C156   H393    1.103   .     S
C156   Si40    1.792   1_556 S
O159   Si8     1.671   1_655 S
C160   H394    1.106   .     S
C160   H395    1.093   .     S
C160   H396    1.116   .     S
C161   H397    1.057   .     S
C161   H398    1.058   .     S
C161   H399    1.118   .     S
C163   H400    1.103   .     S
C163   H401    1.174   .     S
C163   H402    1.168   .     S
C164   H403    1.128   .     S
C164   H404    1.136   .     S
C164   H405    1.098   .     S
C165   H406    1.075   .     S
C165   H407    1.068   .     S
C165   H408    1.090   .     S
C167   H409    1.121   .     S
C167   H410    1.149   .     S
C167   H411    1.157   .     S
O168   Si8     1.666   1_655 S
C170   H412    1.121   .     S
C170   H413    1.096   .     S
C170   H414    1.145   .     S
O173   Si10    1.596   1_655 S
O174   Si15    1.669   1_655 S
O174   Si46    1.644   1_556 S
O176   Si34    1.606   1_565 S
C178   H415    1.129   .     S
C178   H416    1.128   .     S
C178   H417    1.138   .     S
C179   H418    1.107   .     S
C179   H419    1.127   .     S
C179   H420    1.062   .     S
O180   Si10    1.624   1_655 S
C181   H421    1.117   .     S
C181   H422    1.107   .     S
C181   H423    1.143   .     S
C182   H424    1.097   .     S
C182   H425    1.098   .     S
C182   H426    1.140   .     S
C183   H427    1.149   .     S
C183   H428    1.032   .     S
C183   H429    1.095   .     S
C184   H430    1.125   .     S
C184   H431    1.108   .     S
C184   H432    1.120   .     S
O186   Si15    1.651   1_655 S
O188   Si46    1.627   1_556 S
C189   H433    1.118   .     S
C189   H434    1.112   .     S
C189   H435    1.155   .     S
O190   Si28    1.623   1_556 S
C191   H436    1.128   .     S
C191   H437    1.110   .     S
C191   H438    1.072   .     S
C192   H439    1.117   .     S
C192   H440    1.135   .     S
C192   H441    1.124   .     S
C193   H442    1.097   .     S
C193   H443    1.128   .     S
C193   H444    1.143   .     S
C195   H445    1.136   .     S
C195   H446    1.110   .     S
C195   H447    1.065   .     S
