data_333-11-11-14-15-30-9
_audit_creation_date              2025-03-07
_audit_creation_method            'Materials Studio'
_symmetry_space_group_name_H-M    'P1'
_symmetry_Int_Tables_number       1
_symmetry_cell_setting            triclinic
loop_
_symmetry_equiv_pos_as_xyz
  x,y,z
_cell_length_a                    16.3871
_cell_length_b                    18.9201
_cell_length_c                    19.5490
_cell_angle_alpha                 92.1126
_cell_angle_beta                  83.4456
_cell_angle_gamma                 129.1025
loop_
_atom_site_label
_atom_site_type_symbol
_atom_site_fract_x
_atom_site_fract_y
_atom_site_fract_z
_atom_site_U_iso_or_equiv
_atom_site_adp_type
_atom_site_occupancy
Si1    Si    0.01162   0.19660   0.36486   0.00000  Uiso   1.00
Si2    Si    0.03908   0.19361   0.85733   0.00000  Uiso   1.00
Si3    Si    0.20637   0.36481   0.12419   0.00000  Uiso   1.00
Si4    Si    0.01524   0.48715   0.24373   0.00000  Uiso   1.00
Si5    Si    0.19401   0.47316   0.02096   0.00000  Uiso   1.00
Si6    Si    0.07416   0.36592   0.43182   0.00000  Uiso   1.00
Si7    Si    0.05126   0.56429   0.55961   0.00000  Uiso   1.00
Si8    Si    0.19718   0.51412   0.31765   0.00000  Uiso   1.00
Si9    Si    0.19599   0.39598   0.79591   0.00000  Uiso   1.00
Si10   Si    0.15111   0.58563   0.10962   0.00000  Uiso   1.00
Si11   Si    0.10261   0.76592   0.24790   0.00000  Uiso   1.00
Si12   Si    0.22912   0.64436   0.43609   0.00000  Uiso   1.00
Si13   Si    0.25894   0.78564   0.34059   0.00000  Uiso   1.00
Si14   Si    0.17701   0.69738   0.82567   0.00000  Uiso   1.00
Si15   Si    0.36003   0.92171   0.58253   0.00000  Uiso   1.00
Si16   Si    0.59331  -0.06197   0.09083   0.00000  Uiso   1.00
Si17   Si    0.23101   0.02870  -0.09169   0.00000  Uiso   1.00
Si18   Si    0.27670   0.18768   0.49569   0.00000  Uiso   1.00
Si19   Si    0.35337   0.18811   0.26318   0.00000  Uiso   1.00
Si20   Si    0.37161   0.51766   0.21346   0.00000  Uiso   1.00
Si21   Si    0.48242   0.53682  -0.03959   0.00000  Uiso   1.00
Si22   Si    0.41940   0.32098   0.37658   0.00000  Uiso   1.00
Si23   Si    0.26619   0.47627   0.50386   0.00000  Uiso   1.00
Si24   Si    0.50793   0.50319   0.30698   0.00000  Uiso   1.00
Si25   Si    0.34462   0.55708   0.89043   0.00000  Uiso   1.00
Si26   Si    0.49386   0.64893   0.08338   0.00000  Uiso   1.00
Si27   Si    0.48765   0.77814  -0.00037   0.00000  Uiso   1.00
Si28   Si    0.47117   0.61014   0.40395   0.00000  Uiso   1.00
Si29   Si    0.39509   0.78562   0.52682   0.00000  Uiso   1.00
Si30   Si    0.47868   0.71142   0.78333   0.00000  Uiso   1.00
Si31   Si    0.35164   0.80540   0.92151   0.00000  Uiso   1.00
Si32   Si    0.50420   0.79117   0.64776   0.00000  Uiso   1.00
Si33   Si    0.88846  -0.03610   0.15415   0.00000  Uiso   1.00
Si34   Si    0.64445   0.21498   0.74771   0.00000  Uiso   1.00
Si35   Si    0.81931   0.04781   0.81506   0.00000  Uiso   1.00
Si36   Si    0.43343   0.13017   0.97854   0.00000  Uiso   1.00
Si37   Si    0.80148   0.18849   0.76961   0.00000  Uiso   1.00
Si38   Si    0.83708   0.31865   0.18170   0.00000  Uiso   1.00
Si39   Si    0.70537   0.51084   0.25570   0.00000  Uiso   1.00
Si40   Si    0.84591   0.55561   0.02886   0.00000  Uiso   1.00
Si41   Si    0.70626   0.28027   0.39492   0.00000  Uiso   1.00
Si42   Si    0.59305   0.44595   0.47110   0.00000  Uiso   1.00
Si43   Si    0.84533   0.47970   0.33954   0.00000  Uiso   1.00
Si44   Si    0.62958   0.53523   0.85389   0.00000  Uiso   1.00
Si45   Si    0.91744   0.64934   0.16363   0.00000  Uiso   1.00
Si46   Si    0.72601   0.77070   0.10527   0.00000  Uiso   1.00
Si47   Si    0.83093   0.60021   0.43376   0.00000  Uiso   1.00
Si48   Si    0.72044   0.83674   0.60567   0.00000  Uiso   1.00
Si49   Si    0.97059   0.78676   0.36207   0.00000  Uiso   1.00
Si50   Si    0.65062   0.85432   0.87494   0.00000  Uiso   1.00
Si51   Si    0.88857   0.98751   0.68759   0.00000  Uiso   1.00
C52    C    -0.08289   0.17801   0.30596   0.00000  Uiso   1.00
C53    C    -0.05815   0.08349   0.40737   0.00000  Uiso   1.00
C54    C     0.13262   0.22950   0.30925   0.00000  Uiso   1.00
C55    C     0.10369   0.15356   0.79950   0.00000  Uiso   1.00
C56    C     1.05972   0.18773   0.94602   0.00000  Uiso   1.00
C57    C     0.08266   0.33254   0.17590   0.00000  Uiso   1.00
C58    C     0.18901   0.25948   0.10730   0.00000  Uiso   1.00
O59    O     0.23650   0.42847   0.05711   0.00000  Uiso   1.00
C60    C     0.06822   0.38039   0.97978   0.00000  Uiso   1.00
C61    C    -0.05563   0.33815   0.44851   0.00000  Uiso   1.00
O62    O     0.04984   0.26994   0.42343   0.00000  Uiso   1.00
C63    C     0.09940   0.67936   0.58544   0.00000  Uiso   1.00
C64    C     0.90429   0.48569   0.55861   0.00000  Uiso   1.00
O65    O     0.12326   0.51942   0.27404   0.00000  Uiso   1.00
O66    O     0.12611   0.41917   0.35706   0.00000  Uiso   1.00
O67    O     0.09503   0.29723   0.83021   0.00000  Uiso   1.00
C68    C     0.27029   0.38542   0.71680   0.00000  Uiso   1.00
C69    C     0.14133   0.44934   0.77137   0.00000  Uiso   1.00
O70    O     0.06061   0.54458   0.17171   0.00000  Uiso   1.00
O71    O     0.17412   0.52039   0.08081   0.00000  Uiso   1.00
C72    C     0.11179   0.61339   0.03919   0.00000  Uiso   1.00
C73    C     0.27141   0.68370   0.14315   0.00000  Uiso   1.00
C74    C     0.20505   0.86202   0.18360   0.00000  Uiso   1.00
O75    O     0.11782   0.57425   0.48438   0.00000  Uiso   1.00
O76    O     0.24357   0.59237   0.37532   0.00000  Uiso   1.00
O77    O     0.15968   0.74572   0.29771   0.00000  Uiso   1.00
O78    O     0.23099   0.72401   0.40582   0.00000  Uiso   1.00
C79    C     0.31163   0.89819   0.36367   0.00000  Uiso   1.00
C80    C     0.37024   0.79889   0.28262   0.00000  Uiso   1.00
C81    C     0.05482   0.58150   0.84362   0.00000  Uiso   1.00
C82    C     0.25249   0.70568   0.74771   0.00000  Uiso   1.00
C83    C     0.22970   0.90095   0.58376   0.00000  Uiso   1.00
C84    C     0.15600   0.78484   0.81663   0.00000  Uiso   1.00
C85    C     0.39871   0.94969   0.67076   0.00000  Uiso   1.00
C86    C     0.45918   1.02658   0.52729   0.00000  Uiso   1.00
C87    C     0.71042   0.02305   0.03153   0.00000  Uiso   1.00
C88    C     0.61044   0.90668   0.17281   0.00000  Uiso   1.00
C89    C     0.52397  -0.01507   0.11752   0.00000  Uiso   1.00
C90    C     0.19255   0.09860  -0.05884   0.00000  Uiso   1.00
C91    C     0.20527   0.00575  -0.18477   0.00000  Uiso   1.00
C92    C     0.13708  -0.07995   0.96599   0.00000  Uiso   1.00
C93    C     0.13195   0.08916   0.49579   0.00000  Uiso   1.00
C94    C     0.33589   0.12864   0.47890   0.00000  Uiso   1.00
C95    C     0.28108   0.22371   0.58550   0.00000  Uiso   1.00
C96    C     0.21398   0.08978   0.29927   0.00000  Uiso   1.00
C97    C     0.42171   0.14243   0.22960   0.00000  Uiso   1.00
C98    C     0.34462   0.24413   0.19068   0.00000  Uiso   1.00
O99    O     0.29274   0.42392   0.17534   0.00000  Uiso   1.00
O100   O     0.29919   0.52981   0.26873   0.00000  Uiso   1.00
C101   C     0.39548   0.41177  -0.02569   0.00000  Uiso   1.00
O102   O     0.32342   0.26360   0.43537   0.00000  Uiso   1.00
O103   O     0.41166   0.25378   0.32219   0.00000  Uiso   1.00
O104   O     0.15573   0.43233   0.48415   0.00000  Uiso   1.00
C105   C     0.25788   0.37782   0.52845   0.00000  Uiso   1.00
C106   C     0.29792   0.54099   0.58842   0.00000  Uiso   1.00
O107   O     0.46108   0.51609   0.24442   0.00000  Uiso   1.00
O108   O     0.42703   0.39902   0.34055   0.00000  Uiso   1.00
O109   O     0.27758   0.46352   0.85109   0.00000  Uiso   1.00
O110   O     0.44106   0.57137   0.91039   0.00000  Uiso   1.00
O111   O     0.27637   0.54501   0.96010   0.00000  Uiso   1.00
O112   O     0.42526   0.59808   0.15210   0.00000  Uiso   1.00
O113   O     0.50585   0.58513   0.03334   0.00000  Uiso   1.00
O114   O     0.44965   0.68649   0.04268   0.00000  Uiso   1.00
O115   O     0.50853   0.84576   0.05505   0.00000  Uiso   1.00
O116   O     0.34862   0.53031   0.43888   0.00000  Uiso   1.00
O117   O     0.51768   0.56556   0.36598   0.00000  Uiso   1.00
C118   C     0.49692   0.70036   0.34852   0.00000  Uiso   1.00
O119   O     0.32356   0.69405   0.48532   0.00000  Uiso   1.00
C120   C     0.51743   0.86958   0.46856   0.00000  Uiso   1.00
O121   O     0.34193   0.83076   0.55006   0.00000  Uiso   1.00
O122   O     0.38206   0.63918   0.83874   0.00000  Uiso   1.00
C123   C     0.54651   0.66451   0.75424   0.00000  Uiso   1.00
O124   O     0.24986   0.72695   0.88365   0.00000  Uiso   1.00
O125   O     0.40034   0.76127   0.95390   0.00000  Uiso   1.00
C126   C     0.45678   0.90559   0.86139   0.00000  Uiso   1.00
C127   C     0.31644   0.84800   0.99358   0.00000  Uiso   1.00
O128   O     0.42568   0.76481   0.59259   0.00000  Uiso   1.00
O129   O     0.44796   0.73093   0.71657   0.00000  Uiso   1.00
C130   C     0.56868   0.90980   0.66419   0.00000  Uiso   1.00
C131   C     0.90395   0.06635   0.12379   0.00000  Uiso   1.00
C132   C     0.85915  -0.04969   0.25156   0.00000  Uiso   1.00
C133   C     1.01086   0.97702   0.12908   0.00000  Uiso   1.00
C134   C     0.50809   0.15652   0.79263   0.00000  Uiso   1.00
C135   C     0.73891   0.33571   0.76788   0.00000  Uiso   1.00
O136   O     0.91509   0.12352   0.85710   0.00000  Uiso   1.00
C137   C     0.36875   0.06533   1.06327   0.00000  Uiso   1.00
C138   C     0.47387   0.24817   0.99045   0.00000  Uiso   1.00
C139   C     0.55247   0.13853   0.95706   0.00000  Uiso   1.00
O140   O     0.34891   0.07537   0.92363   0.00000  Uiso   1.00
C141   C     0.88156   0.25196   0.68669   0.00000  Uiso   1.00
O142   O     0.68967   0.16512   0.76652   0.00000  Uiso   1.00
O143   O     0.78187   0.09401   0.77594   0.00000  Uiso   1.00
C144   C     0.85568   0.25307   0.84919   0.00000  Uiso   1.00
C145   C     0.80959   0.21016   0.16857   0.00000  Uiso   1.00
C146   C     0.89452   0.37704   0.09789   0.00000  Uiso   1.00
O147   O     0.92564   0.37916   0.23109   0.00000  Uiso   1.00
C148   C     0.61992   0.42514   0.19393   0.00000  Uiso   1.00
O149   O     0.62675   0.53009   0.29361   0.00000  Uiso   1.00
C150   C     0.93706   0.64919   0.96263   0.00000  Uiso   1.00
C151   C     0.70719   0.29455   0.19607   0.00000  Uiso   1.00
C152   C     0.81075   0.44548  -0.00518   0.00000  Uiso   1.00
C153   C     0.64581   0.22833   0.65516   0.00000  Uiso   1.00
C154   C     0.57715   0.23942   0.37289   0.00000  Uiso   1.00
C155   C     0.72919   0.20625   0.34711   0.00000  Uiso   1.00
C156   C     0.67948   0.24611   0.48909   0.00000  Uiso   1.00
C157   C     1.07441   0.51076   0.62329   0.00000  Uiso   1.00
O158   O     0.52417   0.37167   0.41631   0.00000  Uiso   1.00
C159   C     0.61754   0.39239   0.53376   0.00000  Uiso   1.00
C160   C     0.52558   0.48228   0.52126   0.00000  Uiso   1.00
O161   O     0.95051   0.51600   0.29055   0.00000  Uiso   1.00
O162   O     0.75234   0.47084   0.29880   0.00000  Uiso   1.00
O163   O     0.80065   0.38735   0.38115   0.00000  Uiso   1.00
C164   C     0.53337   0.46928   0.78763   0.00000  Uiso   1.00
C165   C     0.65903   0.45856   0.87282   0.00000  Uiso   1.00
C166   C     0.72536   0.54685   1.04054   0.00000  Uiso   1.00
C167   C     0.75365   0.64308   0.80632   0.00000  Uiso   1.00
O168   O     0.59052   0.56346   0.91948   0.00000  Uiso   1.00
O169   O     0.80671   0.60030   0.21545   0.00000  Uiso   1.00
O170   O     0.89939   0.58704   0.09985   0.00000  Uiso   1.00
C171   C     0.95143   0.75785   0.12871   0.00000  Uiso   1.00
O172   O     1.01178   0.68010   0.20662   0.00000  Uiso   1.00
O173   O     0.60901   0.73242   0.09807   0.00000  Uiso   1.00
O174   O     0.79486   0.87483   0.12025   0.00000  Uiso   1.00
C175   C     0.71907   0.71055   0.18308   0.00000  Uiso   1.00
O176   O     0.70599   0.53061   0.43049   0.00000  Uiso   1.00
O177   O     0.87159   0.54790   0.39863   0.00000  Uiso   1.00
C178   C     0.85593   0.63084   0.52573   0.00000  Uiso   1.00
C179   C     0.54735   0.67158   0.47808   0.00000  Uiso   1.00
C180   C     0.74904   0.75712   0.60395   0.00000  Uiso   1.00
C181   C     0.78628   0.90380   0.51971   0.00000  Uiso   1.00
O182   O     0.59602   0.78506   0.61742   0.00000  Uiso   1.00
O183   O     1.04620   0.79851   0.29595   0.00000  Uiso   1.00
C184   C     0.79302   0.77346   0.02294   0.00000  Uiso   1.00
C185   C     0.90718   0.83362   0.34250   0.00000  Uiso   1.00
O186   O     0.87789   0.68731   0.38478   0.00000  Uiso   1.00
C187   C     1.04381   0.84218   0.43764   0.00000  Uiso   1.00
O188   O     0.55539   0.80235   0.82227   0.00000  Uiso   1.00
C189   C     0.73934   0.82099   0.85650   0.00000  Uiso   1.00
O190   O     0.72582   0.96323   0.86660   0.00000  Uiso   1.00
O191   O     0.59453   0.82102   0.95342   0.00000  Uiso   1.00
C192   C     0.95209   1.08628   0.62632   0.00000  Uiso   1.00
O193   O     0.78288   0.90645   0.66308   0.00000  Uiso   1.00
C194   C     0.98354   0.96195   0.68156   0.00000  Uiso   1.00
O195   O     0.86935   1.01296   0.76395   0.00000  Uiso   1.00
H196   H    -0.07639   0.14619   0.25964   0.00000  Uiso   1.00
H197   H    -0.05508   0.24450   0.28520   0.00000  Uiso   1.00
H198   H    -0.16643   0.13107   0.32897   0.00000  Uiso   1.00
H199   H    -0.11976   0.02436   0.38134   0.00000  Uiso   1.00
H200   H    -0.10060   0.08512   0.45536   0.00000  Uiso   1.00
H201   H    -0.00581   0.07000   0.41904   0.00000  Uiso   1.00
H202   H     0.17940   0.29430   0.27285   0.00000  Uiso   1.00
H203   H     0.12339   0.17077   0.28137   0.00000  Uiso   1.00
H204   H     0.18532   0.24520   0.34544   0.00000  Uiso   1.00
H205   H     0.18677   0.19442   0.80022   0.00000  Uiso   1.00
H206   H     0.09072   0.15189   0.74573   0.00000  Uiso   1.00
H207   H     0.05725   0.08470   0.81874   0.00000  Uiso   1.00
H208   H     1.01756   0.11665   0.96443   0.00000  Uiso   1.00
H209   H     1.02121   0.20869   0.97942   0.00000  Uiso   1.00
H210   H     1.14337   0.22401   0.94917   0.00000  Uiso   1.00
H211   H     0.06722   0.37722   0.15844   0.00000  Uiso   1.00
H212   H     0.09633   0.34076   0.22938   0.00000  Uiso   1.00
H213   H     0.01311   0.25889   0.17156   0.00000  Uiso   1.00
H214   H     0.26336   0.27634   0.08337   0.00000  Uiso   1.00
H215   H     0.12773   0.21531   0.07566   0.00000  Uiso   1.00
H216   H     0.15575   0.21446   0.15634   0.00000  Uiso   1.00
H217   H     0.04357   0.42011   0.96216   0.00000  Uiso   1.00
H218   H     0.00912   0.32474   1.02026   0.00000  Uiso   1.00
H219   H     0.09188   0.35199   0.93810   0.00000  Uiso   1.00
H220   H    -0.08401   0.32759   0.50255   0.00000  Uiso   1.00
H221   H    -0.10863   0.27923   0.41975   0.00000  Uiso   1.00
H222   H    -0.05169   0.39241   0.42785   0.00000  Uiso   1.00
H223   H     0.11542   0.71990   0.53892   0.00000  Uiso   1.00
H224   H     0.16781   0.71275   0.61169   0.00000  Uiso   1.00
H225   H     0.03334   0.66990   0.61623   0.00000  Uiso   1.00
H226   H     0.86922   0.50345   0.60225   0.00000  Uiso   1.00
H227   H     0.87083   0.41536   0.56947   0.00000  Uiso   1.00
H228   H     0.89253   0.50039   0.50902   0.00000  Uiso   1.00
H229   H     0.30782   0.36005   0.73310   0.00000  Uiso   1.00
H230   H     0.32885   0.45292   0.69434   0.00000  Uiso   1.00
H231   H     0.21674   0.34729   0.68387   0.00000  Uiso   1.00
H232   H     0.20771   0.50888   0.73841   0.00000  Uiso   1.00
H233   H     0.11638   0.47223   0.81700   0.00000  Uiso   1.00
H234   H     0.07474   0.39700   0.74140   0.00000  Uiso   1.00
H235   H     0.17698   0.63781  -0.00501   0.00000  Uiso   1.00
H236   H     0.10436   0.66896   0.05328   0.00000  Uiso   1.00
H237   H     0.04213   0.56090   0.01935   0.00000  Uiso   1.00
H238   H     0.30968   0.66166   0.16576   0.00000  Uiso   1.00
H239   H     0.24506   0.71097   0.18543   0.00000  Uiso   1.00
H240   H     0.33633   0.74721   0.10974   0.00000  Uiso   1.00
H241   H     0.23478   0.83528   0.14397   0.00000  Uiso   1.00
H242   H     0.27366   0.92003   0.20931   0.00000  Uiso   1.00
H243   H     0.17150   0.88952   0.15663   0.00000  Uiso   1.00
H244   H     0.29990   0.93009   0.32414   0.00000  Uiso   1.00
H245   H     0.39537   0.93888   0.37164   0.00000  Uiso   1.00
H246   H     0.26263   0.89737   0.41411   0.00000  Uiso   1.00
H247   H     0.44257   0.83069   0.31076   0.00000  Uiso   1.00
H248   H     0.39422   0.84349   0.23489   0.00000  Uiso   1.00
H249   H     0.34841   0.73162   0.27627   0.00000  Uiso   1.00
H250   H     0.05127   0.54621   0.79914   0.00000  Uiso   1.00
H251   H    -0.01314   0.58050   0.85219   0.00000  Uiso   1.00
H252   H     0.05411   0.55605   0.89497   0.00000  Uiso   1.00
H253   H     0.22335   0.71064   0.70277   0.00000  Uiso   1.00
H254   H     0.25543   0.65090   0.74783   0.00000  Uiso   1.00
H255   H     0.33133   0.77100   0.75605   0.00000  Uiso   1.00
H256   H     0.20009   0.87399   0.53187   0.00000  Uiso   1.00
H257   H     0.24771   0.96422   0.59591   0.00000  Uiso   1.00
H258   H     0.16490   0.84617   0.62141   0.00000  Uiso   1.00
H259   H     0.23028   0.85541   0.83178   0.00000  Uiso   1.00
H260   H     0.09608   0.76952   0.85651   0.00000  Uiso   1.00
H261   H     0.13390   0.78089   0.76357   0.00000  Uiso   1.00
H262   H     0.37217   0.88747   0.70125   0.00000  Uiso   1.00
H263   H     0.34782   0.96322   0.69974   0.00000  Uiso   1.00
H264   H     0.48237   1.01548   0.67103   0.00000  Uiso   1.00
H265   H     0.44614   1.02274   0.47269   0.00000  Uiso   1.00
H266   H     0.54005   1.04840   0.53619   0.00000  Uiso   1.00
H267   H     0.45050   1.07787   0.55241   0.00000  Uiso   1.00
H268   H     0.76069   0.08863   0.06037   0.00000  Uiso   1.00
H269   H     0.68285   0.03421  -0.01591   0.00000  Uiso   1.00
H270   H     0.75114  -0.00065   0.01227   0.00000  Uiso   1.00
H271   H     0.61862   0.95333   0.20964   0.00000  Uiso   1.00
H272   H     0.68280   0.91242   0.16484   0.00000  Uiso   1.00
H273   H     0.54428   0.83231   0.18755   0.00000  Uiso   1.00
H274   H     0.54295   0.01594   0.16827   0.00000  Uiso   1.00
H275   H     0.44111  -0.07021   0.11550   0.00000  Uiso   1.00
H276   H     0.55997   0.05233   0.08754   0.00000  Uiso   1.00
H277   H     0.21515   0.11812  -0.00775   0.00000  Uiso   1.00
H278   H     0.10795   0.06331  -0.05866   0.00000  Uiso   1.00
H279   H     0.23561   0.15748  -0.09543   0.00000  Uiso   1.00
H280   H     0.12843  -0.05646  -0.19557   0.00000  Uiso   1.00
H281   H     0.26351   0.00010  -0.21366   0.00000  Uiso   1.00
H282   H     0.22109   0.06893  -0.20768   0.00000  Uiso   1.00
H283   H     0.05080  -0.12111   0.95998   0.00000  Uiso   1.00
H284   H     0.15702  -0.05953   1.01844   0.00000  Uiso   1.00
H285   H     0.14793  -0.13118   0.94849   0.00000  Uiso   1.00
H286   H     0.10570   0.04920   0.54442   0.00000  Uiso   1.00
H287   H     0.11552   0.04734   0.45065   0.00000  Uiso   1.00
H288   H     0.08563   0.11117   0.49909   0.00000  Uiso   1.00
H289   H     0.35777   0.12966   0.42284   0.00000  Uiso   1.00
H290   H     0.27830   0.05736   0.49960   0.00000  Uiso   1.00
H291   H     0.41018   0.17019   0.50393   0.00000  Uiso   1.00
H292   H     0.21871   0.23079   0.60474   0.00000  Uiso   1.00
H293   H     0.36110   0.28232   0.59040   0.00000  Uiso   1.00
H294   H     0.25043   0.16198   0.61335   0.00000  Uiso   1.00
H295   H     0.16520   0.05006   0.25602   0.00000  Uiso   1.00
H296   H     0.17520   0.10886   0.33552   0.00000  Uiso   1.00
H297   H     0.23154   0.05208   0.32806   0.00000  Uiso   1.00
H298   H     0.35797   0.07265   0.21018   0.00000  Uiso   1.00
H299   H     0.45484   0.13546   0.27487   0.00000  Uiso   1.00
H300   H     0.48320   0.18587   0.18342   0.00000  Uiso   1.00
H301   H     0.42040   0.28202   0.15437   0.00000  Uiso   1.00
H302   H     0.32481   0.28592   0.20647   0.00000  Uiso   1.00
H303   H     0.27955   0.18189   0.16549   0.00000  Uiso   1.00
H304   H     0.41066   0.38634  -0.07087   0.00000  Uiso   1.00
H305   H     0.31229   0.38584  -0.02380   0.00000  Uiso   1.00
H306   H     0.40587   0.39441   0.02184   0.00000  Uiso   1.00
H307   H     0.28054   0.35442   0.48086   0.00000  Uiso   1.00
H308   H     0.17928   0.31618   0.55926   0.00000  Uiso   1.00
H309   H     0.32201   0.40850   0.55765   0.00000  Uiso   1.00
H310   H     0.23274   0.49398   0.63031   0.00000  Uiso   1.00
H311   H     0.29350   0.59567   0.57597   0.00000  Uiso   1.00
H312   H     0.37377   0.56474   0.60957   0.00000  Uiso   1.00
H313   H     0.57695   0.75890   0.35354   0.00000  Uiso   1.00
H314   H     0.43767   0.70856   0.37592   0.00000  Uiso   1.00
H315   H     0.48874   0.68965   0.29610   0.00000  Uiso   1.00
H316   H     0.54229   0.83515   0.43806   0.00000  Uiso   1.00
H317   H     0.58166   0.92245   0.49940   0.00000  Uiso   1.00
H318   H     0.50574   0.90839   0.43492   0.00000  Uiso   1.00
H319   H     0.56849   0.65537   0.79882   0.00000  Uiso   1.00
H320   H     0.62056   0.71902   0.72480   0.00000  Uiso   1.00
H321   H     0.49072   0.60212   0.72815   0.00000  Uiso   1.00
H322   H     0.42165   0.93259   0.83869   0.00000  Uiso   1.00
H323   H     0.48081   0.87564   0.82023   0.00000  Uiso   1.00
H324   H     0.52816   0.95623   0.88491   0.00000  Uiso   1.00
H325   H     0.26816   0.86533   0.98065   0.00000  Uiso   1.00
H326   H     0.39474   0.90800   1.01192   0.00000  Uiso   1.00
H327   H     0.27237   0.79968   1.03829   0.00000  Uiso   1.00
H328   H     0.64235   0.93186   0.68356   0.00000  Uiso   1.00
H329   H     0.52925   0.92034   0.70884   0.00000  Uiso   1.00
H330   H     0.59319   0.95777   0.61824   0.00000  Uiso   1.00
H331   H     0.83570   0.06170   0.14610   0.00000  Uiso   1.00
H332   H     0.91226   0.07110   0.06538   0.00000  Uiso   1.00
H333   H     0.97377   0.12518   0.13849   0.00000  Uiso   1.00
H334   H     0.81458  -0.02273   0.26615   0.00000  Uiso   1.00
H335   H     0.93280  -0.00738   0.27593   0.00000  Uiso   1.00
H336   H     0.80303  -0.12313   0.27259   0.00000  Uiso   1.00
H337   H     0.99809   0.92683   0.08752   0.00000  Uiso   1.00
H338   H     1.02907   0.95820   0.17444   0.00000  Uiso   1.00
H339   H     1.07501   1.04831   0.10543   0.00000  Uiso   1.00
H340   H     0.47341   0.09087   0.82416   0.00000  Uiso   1.00
H341   H     0.45774   0.13868   0.75235   0.00000  Uiso   1.00
H342   H     0.51418   0.20674   0.82876   0.00000  Uiso   1.00
H343   H     0.70925   0.36993   0.74892   0.00000  Uiso   1.00
H344   H     0.81772   0.36316   0.74204   0.00000  Uiso   1.00
H345   H     0.74306   0.34491   0.82363   0.00000  Uiso   1.00
H346   H     0.30266   0.06929   1.08064   0.00000  Uiso   1.00
H347   H     0.43405   0.09574   1.10050   0.00000  Uiso   1.00
H348   H     0.33125  -0.00614   1.05799   0.00000  Uiso   1.00
H349   H     0.40230   0.24040   1.01407   0.00000  Uiso   1.00
H350   H     0.50745   0.28214   0.93899   0.00000  Uiso   1.00
H351   H     0.54087   0.28128   1.01852   0.00000  Uiso   1.00
H352   H     0.59199   0.16700   1.00570   0.00000  Uiso   1.00
H353   H     0.60348   0.18846   0.91412   0.00000  Uiso   1.00
H354   H     0.53369   0.07385   0.94499   0.00000  Uiso   1.00
H355   H     0.82499   0.20512   0.64859   0.00000  Uiso   1.00
H356   H     0.95212   0.25504   0.67565   0.00000  Uiso   1.00
H357   H     0.90587   0.32243   0.68710   0.00000  Uiso   1.00
H358   H     0.94111   0.30001   0.84239   0.00000  Uiso   1.00
H359   H     0.82981   0.20338   0.89124   0.00000  Uiso   1.00
H360   H     0.81886   0.28566   0.86650   0.00000  Uiso   1.00
H361   H     0.86806   0.21882   0.12426   0.00000  Uiso   1.00
H362   H     0.72967   0.16224   0.15371   0.00000  Uiso   1.00
H363   H     0.81572   0.18656   0.21519   0.00000  Uiso   1.00
H364   H     0.97041   0.39592   0.09189   0.00000  Uiso   1.00
H365   H     0.89694   0.43595   0.10426   0.00000  Uiso   1.00
H366   H     0.83807   0.33130   0.06095   0.00000  Uiso   1.00
H367   H     0.55566   0.42973   0.19014   0.00000  Uiso   1.00
H368   H     0.58033   0.36106   0.21690   0.00000  Uiso   1.00
H369   H     0.67637   0.44371   0.14309   0.00000  Uiso   1.00
H370   H     0.94179   0.70697   0.98204   0.00000  Uiso   1.00
H371   H     0.90023   0.63053   0.91251   0.00000  Uiso   1.00
H372   H     1.02181   0.67503   0.95357   0.00000  Uiso   1.00
H373   H     0.72145   0.34620   0.23109   0.00000  Uiso   1.00
H374   H     0.65161   0.23054   0.22420   0.00000  Uiso   1.00
H375   H     0.67650   0.29025   0.14596   0.00000  Uiso   1.00
H376   H     0.87637   0.44593  -0.00977   0.00000  Uiso   1.00
H377   H     0.77647   0.43340  -0.05540   0.00000  Uiso   1.00
H378   H     0.75087   0.38990   0.03337   0.00000  Uiso   1.00
H379   H     0.56600   0.20558   0.64554   0.00000  Uiso   1.00
H380   H     0.65775   0.18237   0.62931   0.00000  Uiso   1.00
H381   H     0.71489   0.29817   0.63625   0.00000  Uiso   1.00
H382   H     0.54355   0.25342   0.41595   0.00000  Uiso   1.00
H383   H     0.52745   0.16301   0.37004   0.00000  Uiso   1.00
H384   H     0.58990   0.27502   0.32303   0.00000  Uiso   1.00
H385   H     0.69188   0.14518   0.38483   0.00000  Uiso   1.00
H386   H     0.81115   0.24561   0.32353   0.00000  Uiso   1.00
H387   H     0.67093   0.16994   0.30847   0.00000  Uiso   1.00
H388   H     0.74364   0.30182   0.51835   0.00000  Uiso   1.00
H389   H     0.67340   0.18616   0.49814   0.00000  Uiso   1.00
H390   H     0.60400   0.23138   0.51292   0.00000  Uiso   1.00
H391   H     1.14436   0.56260   0.64890   0.00000  Uiso   1.00
H392   H     1.08408   0.46860   0.59158   0.00000  Uiso   1.00
H393   H     1.00194   0.47249   0.66287   0.00000  Uiso   1.00
H394   H     0.54443   0.32030   0.54530   0.00000  Uiso   1.00
H395   H     0.63904   0.43588   0.57802   0.00000  Uiso   1.00
H396   H     0.68727   0.39823   0.51578   0.00000  Uiso   1.00
H397   H     0.48031   0.44350   0.56977   0.00000  Uiso   1.00
H398   H     0.47460   0.48174   0.48806   0.00000  Uiso   1.00
H399   H     0.58724   0.55265   0.53844   0.00000  Uiso   1.00
H400   H     0.47249   0.47804   0.78465   0.00000  Uiso   1.00
H401   H     0.48924   0.39624   0.79674   0.00000  Uiso   1.00
H402   H     0.57879   0.48879   0.73432   0.00000  Uiso   1.00
H403   H     0.74425   0.49917   0.86267   0.00000  Uiso   1.00
H404   H     0.61957   0.40187   0.84048   0.00000  Uiso   1.00
H405   H     0.62332   0.43514   0.92736   0.00000  Uiso   1.00
H406   H     0.71630   0.56457   0.99057   0.00000  Uiso   1.00
H407   H     0.73844   0.59905   1.07205   0.00000  Uiso   1.00
H408   H     0.65255   0.47761   1.05899   0.00000  Uiso   1.00
H409   H     0.74715   0.66367   0.75688   0.00000  Uiso   1.00
H410   H     0.81854   0.63606   0.79212   0.00000  Uiso   1.00
H411   H     0.78352   0.69339   0.84523   0.00000  Uiso   1.00
H412   H     1.02701   0.78852   0.09567   0.00000  Uiso   1.00
H413   H     0.95506   0.79598   0.17709   0.00000  Uiso   1.00
H414   H     0.88694   0.73397   0.09364   0.00000  Uiso   1.00
H415   H     0.79554   0.75264   0.19694   0.00000  Uiso   1.00
H416   H     0.69306   0.64304   0.17458   0.00000  Uiso   1.00
H417   H     0.66949   0.71290   0.22498   0.00000  Uiso   1.00
H418   H     0.94300   0.67261   0.52380   0.00000  Uiso   1.00
H419   H     0.82760   0.57113   0.55661   0.00000  Uiso   1.00
H420   H     0.82624   0.66555   0.55382   0.00000  Uiso   1.00
H421   H     0.54675   0.72833   0.49356   0.00000  Uiso   1.00
H422   H     0.63115   0.69836   0.46419   0.00000  Uiso   1.00
H423   H     0.51258   0.62548   0.52136   0.00000  Uiso   1.00
H424   H     0.82550   0.78711   0.57615   0.00000  Uiso   1.00
H425   H     0.69316   0.69816   0.57660   0.00000  Uiso   1.00
H426   H     0.74547   0.73728   0.65701   0.00000  Uiso   1.00
H427   H     0.75585   0.85725   0.47708   0.00000  Uiso   1.00
H428   H     0.87192   0.94718   0.51524   0.00000  Uiso   1.00
H429   H     0.76949   0.95145   0.51483   0.00000  Uiso   1.00
H430   H     0.77879   0.71185   0.01341   0.00000  Uiso   1.00
H431   H     0.87937   0.81984   0.01628   0.00000  Uiso   1.00
H432   H     0.75316   0.78456  -0.01442   0.00000  Uiso   1.00
H433   H     0.96926   0.89721   0.31084   0.00000  Uiso   1.00
H434   H     0.86802   0.84571   0.38861   0.00000  Uiso   1.00
H435   H     0.84354   0.78789   0.31113   0.00000  Uiso   1.00
H436   H     1.10902   0.91403   0.42862   0.00000  Uiso   1.00
H437   H     1.06672   0.80200   0.45561   0.00000  Uiso   1.00
H438   H     0.99174   0.83968   0.48086   0.00000  Uiso   1.00
H439   H     0.80943   0.86630   0.88408   0.00000  Uiso   1.00
H440   H     0.77447   0.82994   0.80150   0.00000  Uiso   1.00
H441   H     0.69421   0.74883   0.86847   0.00000  Uiso   1.00
H442   H     0.91072   1.11475   0.63952   0.00000  Uiso   1.00
H443   H     0.93709   1.06776   0.57173   0.00000  Uiso   1.00
H444   H     1.03504   1.13556   0.62806   0.00000  Uiso   1.00
H445   H     0.95958   0.90915   0.72396   0.00000  Uiso   1.00
H446   H     1.06318   1.03177   0.68423   0.00000  Uiso   1.00
H447   H     0.98543   0.92905   0.63429   0.00000  Uiso   1.00
loop_
_geom_bond_atom_site_label_1
_geom_bond_atom_site_label_2
_geom_bond_distance
_geom_bond_site_symmetry_2
_ccdc_geom_bond_type
Si1    C52     1.881   .     S
Si1    C53     1.845   .     S
Si1    C54     1.871   .     S
Si1    O62     1.606   .     S
Si2    C55     1.910   .     S
Si2    O67     1.632   .     S
Si2    C56     1.824   1_455 S
Si2    O136    1.578   1_455 S
Si3    C57     1.876   .     S
Si3    C58     1.849   .     S
Si3    O59     1.623   .     S
Si3    O99     1.580   .     S
Si4    O65     1.645   .     S
Si4    O70     1.603   .     S
Si4    O147    1.629   1_455 S
Si4    O161    1.653   1_455 S
Si5    O59     1.612   .     S
Si5    O71     1.574   .     S
Si5    C60     1.921   1_554 S
Si5    O111    1.589   1_554 S
Si6    C61     1.830   .     S
Si6    O62     1.601   .     S
Si6    O66     1.618   .     S
Si6    O104    1.585   .     S
Si7    C63     1.860   .     S
Si7    O75     1.668   .     S
Si7    C64     1.872   1_455 S
Si7    C157    1.845   1_455 S
Si8    O65     1.612   .     S
Si8    O66     1.560   .     S
Si8    O76     1.641   .     S
Si8    O100    1.681   .     S
Si9    O67     1.618   .     S
Si9    C68     1.941   .     S
Si9    C69     1.824   .     S
Si9    O109    1.630   .     S
Si10   O70     1.575   .     S
Si10   O71     1.572   .     S
Si10   C72     1.808   .     S
Si10   C73     1.830   .     S
Si11   C74     1.882   .     S
Si11   O77     1.630   .     S
Si11   O172    1.622   1_455 S
Si11   O183    1.611   1_455 S
Si12   O75     1.620   .     S
Si12   O76     1.606   .     S
Si12   O78     1.620   .     S
Si12   O119    1.626   .     S
Si13   O77     1.623   .     S
Si13   O78     1.581   .     S
Si13   C79     1.784   .     S
Si13   C80     1.909   .     S
Si14   C81     1.816   .     S
Si14   C82     1.794   .     S
Si14   C84     1.909   .     S
Si14   O124    1.563   .     S
Si15   C83     1.910   .     S
Si15   C85     1.848   .     S
Si15   C86     1.853   .     S
Si15   O121    1.665   .     S
Si16   C87     1.830   .     S
Si16   C89     1.858   .     S
Si16   C88     1.839   1_545 S
Si16   O115    1.594   1_545 S
Si17   C90     1.859   .     S
Si17   C91     1.888   .     S
Si17   C92     1.910   1_554 S
Si17   O140    1.601   1_554 S
Si18   C93     1.877   .     S
Si18   C94     1.888   .     S
Si18   C95     1.852   .     S
Si18   O102    1.604   .     S
Si19   C96     1.883   .     S
Si19   C97     1.856   .     S
Si19   C98     1.871   .     S
Si19   O103    1.561   .     S
Si20   O99     1.613   .     S
Si20   O100    1.631   .     S
Si20   O107    1.666   .     S
Si20   O112    1.653   .     S
Si21   C101    1.846   .     S
Si21   O113    1.613   .     S
Si21   O110    1.613   1_554 S
Si21   O168    1.616   1_554 S
Si22   O102    1.581   .     S
Si22   O103    1.578   .     S
Si22   O108    1.586   .     S
Si22   O158    1.626   .     S
Si23   O104    1.534   .     S
Si23   C105    1.858   .     S
Si23   C106    1.936   .     S
Si23   O116    1.564   .     S
Si24   O107    1.618   .     S
Si24   O108    1.635   .     S
Si24   O117    1.566   .     S
Si24   O149    1.662   .     S
Si25   O109    1.604   .     S
Si25   O110    1.522   .     S
Si25   O111    1.584   .     S
Si25   O122    1.607   .     S
Si26   O112    1.543   .     S
Si26   O113    1.619   .     S
Si26   O114    1.577   .     S
Si26   O173    1.571   .     S
Si27   O114    1.652   .     S
Si27   O115    1.535   .     S
Si27   O125    1.626   1_554 S
Si27   O191    1.563   1_554 S
Si28   O116    1.648   .     S
Si28   O117    1.574   .     S
Si28   C118    1.841   .     S
Si28   C179    1.862   .     S
Si29   O119    1.608   .     S
Si29   C120    1.853   .     S
Si29   O121    1.586   .     S
Si29   O128    1.579   .     S
Si30   O122    1.593   .     S
Si30   C123    1.847   .     S
Si30   O129    1.585   .     S
Si30   O188    1.585   .     S
Si31   O124    1.616   .     S
Si31   O125    1.652   .     S
Si31   C126    1.878   .     S
Si31   C127    1.812   .     S
Si32   O128    1.592   .     S
Si32   O129    1.569   .     S
Si32   C130    1.814   .     S
Si32   O182    1.625   .     S
Si33   C131    1.898   .     S
Si33   C132    1.896   .     S
Si33   C133    1.866   1_545 S
Si33   O174    1.588   1_545 S
Si34   C134    1.869   .     S
Si34   C135    1.839   .     S
Si34   O142    1.595   .     S
Si34   C153    1.832   .     S
Si35   O136    1.601   .     S
Si35   O143    1.599   .     S
Si35   O190    1.612   1_545 S
Si35   O195    1.598   1_545 S
Si36   C137    1.866   .     S
Si36   C138    1.900   .     S
Si36   C139    1.853   .     S
Si36   O140    1.610   .     S
Si37   C141    1.861   .     S
Si37   O142    1.599   .     S
Si37   O143    1.611   .     S
Si37   C144    1.873   .     S
Si38   C145    1.817   .     S
Si38   C146    1.806   .     S
Si38   O147    1.578   .     S
Si38   C151    1.862   .     S
Si39   C148    1.851   .     S
Si39   O149    1.642   .     S
Si39   O162    1.675   .     S
Si39   O169    1.580   .     S
Si40   C152    1.894   .     S
Si40   O170    1.615   .     S
Si40   C150    1.853   1_554 S
Si40   C166    1.863   1_554 S
Si41   C154    1.839   .     S
Si41   C155    1.861   .     S
Si41   C156    1.883   .     S
Si41   O163    1.601   .     S
Si42   O158    1.600   .     S
Si42   C159    1.845   .     S
Si42   C160    1.822   .     S
Si42   O176    1.625   .     S
Si43   O161    1.593   .     S
Si43   O162    1.712   .     S
Si43   O163    1.614   .     S
Si43   O177    1.577   .     S
Si44   C164    1.894   .     S
Si44   C165    1.854   .     S
Si44   C167    1.907   .     S
Si44   O168    1.592   .     S
Si45   O169    1.645   .     S
Si45   O170    1.603   .     S
Si45   C171    1.888   .     S
Si45   O172    1.600   .     S
Si46   O173    1.588   .     S
Si46   O174    1.571   .     S
Si46   C175    1.883   .     S
Si46   C184    1.825   .     S
Si47   O176    1.598   .     S
Si47   O177    1.604   .     S
Si47   C178    1.878   .     S
Si47   O186    1.604   .     S
Si48   C180    1.837   .     S
Si48   C181    1.901   .     S
Si48   O182    1.600   .     S
Si48   O193    1.580   .     S
Si49   O183    1.601   .     S
Si49   C185    1.814   .     S
Si49   O186    1.532   .     S
Si49   C187    1.851   .     S
Si50   O188    1.679   .     S
Si50   C189    1.914   .     S
Si50   O190    1.602   .     S
Si50   O191    1.617   .     S
Si51   C192    1.854   .     S
Si51   O193    1.538   .     S
Si51   C194    1.890   .     S
Si51   O195    1.609   .     S
C52    H196    1.101   .     S
C52    H197    1.108   .     S
C52    H198    1.105   .     S
C53    H199    1.086   .     S
C53    H200    1.114   .     S
C53    H201    1.085   .     S
C54    H202    1.163   .     S
C54    H203    1.147   .     S
C54    H204    1.065   .     S
C55    H205    1.062   .     S
C55    H206    1.092   .     S
C55    H207    1.067   .     S
C56    H208    1.106   .     S
C56    H209    1.088   .     S
C56    H210    1.088   .     S
C56    Si2     1.824   1_655 S
C57    H211    1.098   .     S
C57    H212    1.079   .     S
C57    H213    1.122   .     S
C58    H214    1.093   .     S
C58    H215    1.065   .     S
C58    H216    1.139   .     S
C60    H217    1.132   .     S
C60    H218    1.128   .     S
C60    H219    1.123   .     S
C60    Si5     1.921   1_556 S
C61    H220    1.076   .     S
C61    H221    1.076   .     S
C61    H222    1.078   .     S
C63    H223    1.108   .     S
C63    H224    1.065   .     S
C63    H225    1.087   .     S
C64    H226    1.132   .     S
C64    H227    1.091   .     S
C64    H228    1.088   .     S
C64    Si7     1.872   1_655 S
C68    H229    1.067   .     S
C68    H230    1.069   .     S
C68    H231    1.001   .     S
C69    H232    1.102   .     S
C69    H233    1.123   .     S
C69    H234    1.120   .     S
C72    H235    1.139   .     S
C72    H236    1.153   .     S
C72    H237    1.041   .     S
C73    H238    1.081   .     S
C73    H239    1.142   .     S
C73    H240    1.135   .     S
C74    H241    1.136   .     S
C74    H242    1.119   .     S
C74    H243    1.139   .     S
C79    H244    1.101   .     S
C79    H245    1.099   .     S
C79    H246    1.192   .     S
C80    H247    1.138   .     S
C80    H248    1.137   .     S
C80    H249    1.090   .     S
C81    H250    1.061   .     S
C81    H251    1.095   .     S
C81    H252    1.125   .     S
C82    H253    1.080   .     S
C82    H254    1.068   .     S
C82    H255    1.115   .     S
C83    H256    1.134   .     S
C83    H257    1.061   .     S
C83    H258    1.110   .     S
C84    H259    1.164   .     S
C84    H260    1.067   .     S
C84    H261    1.122   .     S
C85    H262    1.130   .     S
C85    H263    1.110   .     S
C85    H264    1.130   .     S
C86    H265    1.103   .     S
C86    H266    1.146   .     S
C86    H267    1.151   .     S
C87    H268    1.141   .     S
C87    H269    1.157   .     S
C87    H270    1.047   .     S
C88    H271    1.068   .     S
C88    H272    1.113   .     S
C88    H273    1.128   .     S
C88    Si16    1.839   1_565 S
C89    H274    1.106   .     S
C89    H275    1.075   .     S
C89    H276    1.160   .     S
C90    H277    1.075   .     S
C90    H278    1.095   .     S
C90    H279    1.097   .     S
C91    H280    1.090   .     S
C91    H281    1.115   .     S
C91    H282    1.149   .     S
C92    H283    1.123   .     S
C92    H284    1.093   .     S
C92    H285    1.126   .     S
C92    Si17    1.910   1_556 S
C93    H286    1.100   .     S
C93    H287    1.101   .     S
C93    H288    1.067   .     S
C94    H289    1.110   .     S
C94    H290    1.105   .     S
C94    H291    1.114   .     S
C95    H292    1.134   .     S
C95    H293    1.070   .     S
C95    H294    1.076   .     S
C96    H295    1.126   .     S
C96    H296    1.097   .     S
C96    H297    1.111   .     S
C97    H298    1.137   .     S
C97    H299    1.142   .     S
C97    H300    1.144   .     S
C98    H301    1.128   .     S
C98    H302    1.053   .     S
C98    H303    1.122   .     S
C101   H304    1.069   .     S
C101   H305    1.117   .     S
C101   H306    1.063   .     S
C105   H307    1.139   .     S
C105   H308    1.167   .     S
C105   H309    1.054   .     S
C106   H310    1.122   .     S
C106   H311    1.119   .     S
C106   H312    1.148   .     S
O110   Si21    1.613   1_556 S
O111   Si5     1.589   1_556 S
O115   Si16    1.594   1_565 S
C118   H313    1.070   .     S
C118   H314    1.148   .     S
C118   H315    1.044   .     S
C120   H316    1.094   .     S
C120   H317    1.115   .     S
C120   H318    1.118   .     S
C123   H319    1.040   .     S
C123   H320    1.083   .     S
C123   H321    1.091   .     S
O125   Si27    1.626   1_556 S
C126   H322    1.111   .     S
C126   H323    1.140   .     S
C126   H324    1.084   .     S
C127   H325    1.085   .     S
C127   H326    1.141   .     S
C127   H327    1.097   .     S
C130   H328    1.110   .     S
C130   H329    1.114   .     S
C130   H330    1.145   .     S
C131   H331    1.103   .     S
C131   H332    1.135   .     S
C131   H333    1.037   .     S
C132   H334    1.134   .     S
C132   H335    1.100   .     S
C132   H336    1.135   .     S
C133   H337    1.156   .     S
C133   H338    1.105   .     S
C133   H339    1.133   .     S
C133   Si33    1.866   1_565 S
C134   H340    1.154   .     S
C134   H341    1.092   .     S
C134   H342    1.122   .     S
C135   H343    1.117   .     S
C135   H344    1.103   .     S
C135   H345    1.100   .     S
O136   Si2     1.578   1_655 S
C137   H346    1.145   .     S
C137   H347    1.173   .     S
C137   H348    1.083   .     S
C138   H349    1.129   .     S
C138   H350    1.097   .     S
C138   H351    1.069   .     S
C139   H352    1.130   .     S
C139   H353    1.094   .     S
C139   H354    1.081   .     S
O140   Si17    1.601   1_556 S
C141   H355    1.128   .     S
C141   H356    1.116   .     S
C141   H357    1.125   .     S
C144   H358    1.079   .     S
C144   H359    1.102   .     S
C144   H360    1.125   .     S
C145   H361    1.148   .     S
C145   H362    1.091   .     S
C145   H363    1.071   .     S
C146   H364    1.048   .     S
C146   H365    1.093   .     S
C146   H366    1.106   .     S
O147   Si4     1.629   1_655 S
C148   H367    1.121   .     S
C148   H368    1.036   .     S
C148   H369    1.172   .     S
C150   H370    1.102   .     S
C150   H371    1.136   .     S
C150   H372    1.137   .     S
C150   Si40    1.853   1_556 S
C151   H373    1.085   .     S
C151   H374    1.069   .     S
C151   H375    1.129   .     S
C152   H376    1.064   .     S
C152   H377    1.131   .     S
C152   H378    1.107   .     S
C153   H379    1.127   .     S
C153   H380    1.100   .     S
C153   H381    1.104   .     S
C154   H382    1.070   .     S
C154   H383    1.129   .     S
C154   H384    1.128   .     S
C155   H385    1.149   .     S
C155   H386    1.092   .     S
C155   H387    1.119   .     S
C156   H388    1.113   .     S
C156   H389    1.094   .     S
C156   H390    1.126   .     S
C157   H391    1.097   .     S
C157   H392    1.071   .     S
C157   H393    1.131   .     S
C157   Si7     1.845   1_655 S
C159   H394    1.116   .     S
C159   H395    1.096   .     S
C159   H396    1.092   .     S
C160   H397    1.092   .     S
C160   H398    1.110   .     S
C160   H399    1.120   .     S
O161   Si4     1.653   1_655 S
C164   H400    1.118   .     S
C164   H401    1.092   .     S
C164   H402    1.132   .     S
C165   H403    1.084   .     S
C165   H404    1.066   .     S
C165   H405    1.114   .     S
C166   H406    1.099   .     S
C166   H407    1.058   .     S
C166   H408    1.111   .     S
C166   Si40    1.863   1_556 S
C167   H409    1.096   .     S
C167   H410    1.155   .     S
C167   H411    1.081   .     S
O168   Si21    1.616   1_556 S
C171   H412    1.107   .     S
C171   H413    1.152   .     S
C171   H414    1.154   .     S
O172   Si11    1.622   1_655 S
O174   Si33    1.588   1_565 S
C175   H415    1.040   .     S
C175   H416    1.074   .     S
C175   H417    1.106   .     S
C178   H418    1.109   .     S
C178   H419    1.087   .     S
C178   H420    1.134   .     S
C179   H421    1.110   .     S
C179   H422    1.124   .     S
C179   H423    1.058   .     S
C180   H424    1.076   .     S
C180   H425    1.071   .     S
C180   H426    1.099   .     S
C181   H427    1.098   .     S
C181   H428    1.084   .     S
C181   H429    1.106   .     S
O183   Si11    1.611   1_655 S
C184   H430    1.048   .     S
C184   H431    1.091   .     S
C184   H432    1.139   .     S
C185   H433    1.110   .     S
C185   H434    1.147   .     S
C185   H435    1.087   .     S
C187   H436    1.079   .     S
C187   H437    1.119   .     S
C187   H438    1.110   .     S
C189   H439    1.100   .     S
C189   H440    1.125   .     S
C189   H441    1.085   .     S
O190   Si35    1.612   1_565 S
O191   Si27    1.563   1_556 S
C192   H442    1.108   .     S
C192   H443    1.116   .     S
C192   H444    1.062   .     S
C194   H445    1.154   .     S
C194   H446    1.134   .     S
C194   H447    1.103   .     S
O195   Si35    1.598   1_565 S
