data_333-9-11-16-15-30-4
_audit_creation_date              2025-03-07
_audit_creation_method            'Materials Studio'
_symmetry_space_group_name_H-M    'P1'
_symmetry_Int_Tables_number       1
_symmetry_cell_setting            triclinic
loop_
_symmetry_equiv_pos_as_xyz
  x,y,z
_cell_length_a                    18.9763
_cell_length_b                    17.2893
_cell_length_c                    17.3072
_cell_angle_alpha                 93.9411
_cell_angle_beta                  92.9968
_cell_angle_gamma                 120.1574
loop_
_atom_site_label
_atom_site_type_symbol
_atom_site_fract_x
_atom_site_fract_y
_atom_site_fract_z
_atom_site_U_iso_or_equiv
_atom_site_adp_type
_atom_site_occupancy
Si1    Si    0.03860   0.26041   0.23226   0.00000  Uiso   1.00
Si2    Si    0.18684   0.24185   0.27776   0.00000  Uiso   1.00
Si3    Si    0.13260  -0.05706   0.83918   0.00000  Uiso   1.00
Si4    Si   -0.09642   0.08781   0.89932   0.00000  Uiso   1.00
Si5    Si    0.11745   0.04187   0.69982   0.00000  Uiso   1.00
Si6    Si    0.14988   0.39727   0.13121   0.00000  Uiso   1.00
Si7    Si    0.02017   0.50152   0.22913   0.00000  Uiso   1.00
Si8    Si    0.15314   0.53922   0.03247   0.00000  Uiso   1.00
Si9    Si    0.21806   0.38863   0.39993   0.00000  Uiso   1.00
Si10   Si    0.17120   0.52199   0.33762   0.00000  Uiso   1.00
Si11   Si    0.07804   0.47169   0.85918   0.00000  Uiso   1.00
Si12   Si    0.25717   0.48458   0.64641   0.00000  Uiso   1.00
Si13   Si    0.10881   0.66255   0.12534   0.00000  Uiso   1.00
Si14   Si    0.01199   0.73525   0.03854   0.00000  Uiso   1.00
Si15   Si    0.14442   0.63604   0.46427   0.00000  Uiso   1.00
Si16   Si   -0.07861   0.76785   0.55280   0.00000  Uiso   1.00
Si17   Si    0.15590   0.66297   0.81707   0.00000  Uiso   1.00
Si18   Si   -0.02875   0.77884   0.87611   0.00000  Uiso   1.00
Si19   Si    0.39667  -0.07566   0.10562   0.00000  Uiso   1.00
Si20   Si    0.51736   0.11403   0.06581   0.00000  Uiso   1.00
Si21   Si    0.48982   0.06512   0.41400   0.00000  Uiso   1.00
Si22   Si    0.22874   0.00354   0.59664   0.00000  Uiso   1.00
Si23   Si    0.45119   0.20527   0.36113   0.00000  Uiso   1.00
Si24   Si    0.56391   0.04212   0.80400   0.00000  Uiso   1.00
Si25   Si    0.38723   0.17242   0.66602   0.00000  Uiso   1.00
Si26   Si    0.29977   0.54595   0.23121   0.00000  Uiso   1.00
Si27   Si    0.36816   0.51573   0.51821   0.00000  Uiso   1.00
Si28   Si    0.46151   0.56501   0.29862   0.00000  Uiso   1.00
Si29   Si    0.45753   0.52020   0.84984   0.00000  Uiso   1.00
Si30   Si    0.51869   0.50858   0.58558   0.00000  Uiso   1.00
Si31   Si    0.25649   0.84128   0.21493   0.00000  Uiso   1.00
Si32   Si    0.57893   0.82753  -0.03178   0.00000  Uiso   1.00
Si33   Si    0.49779   0.68234   0.45808   0.00000  Uiso   1.00
Si34   Si    0.53392   0.64245   0.71985   0.00000  Uiso   1.00
Si35   Si    0.87725   0.10046   0.16233   0.00000  Uiso   1.00
Si36   Si    0.82433   0.15633   0.01805   0.00000  Uiso   1.00
Si37   Si    0.94727   0.24498   0.37413   0.00000  Uiso   1.00
Si38   Si    0.79294  -0.06037   0.76313   0.00000  Uiso   1.00
Si39   Si    0.65426   0.13660   0.96230   0.00000  Uiso   1.00
Si40   Si    0.80622   0.10343   0.68454   0.00000  Uiso   1.00
Si41   Si    0.89470   0.34832   0.09703   0.00000  Uiso   1.00
Si42   Si    0.87373   0.51153   0.30214   0.00000  Uiso   1.00
Si43   Si    0.74963   0.53169   0.87856   0.00000  Uiso   1.00
Si44   Si    0.79833   0.48932   0.64578   0.00000  Uiso   1.00
Si45   Si    0.72276   1.01565   0.24677   0.00000  Uiso   1.00
Si46   Si    0.86321   0.66290   0.39143   0.00000  Uiso   1.00
Si47   Si    0.67504   0.77889   0.52983   0.00000  Uiso   1.00
Si48   Si    0.90605   0.82397   0.30024   0.00000  Uiso   1.00
Si49   Si    0.81836   0.65188   0.75537   0.00000  Uiso   1.00
Si50   Si    0.66211   0.78732   0.83707   0.00000  Uiso   1.00
Si51   Si    0.79723   0.78358   0.65467   0.00000  Uiso   1.00
O52    O     0.09570   0.21473   0.24167   0.00000  Uiso   1.00
C53    C     0.17019   0.14033   0.32823   0.00000  Uiso   1.00
C54    C     0.25159   0.25569   0.19882   0.00000  Uiso   1.00
C55    C     0.16529   0.03506   0.92303   0.00000  Uiso   1.00
C56    C     0.23437   0.94812   0.82142   0.00000  Uiso   1.00
C57    C    -0.05578   0.05579   0.98223   0.00000  Uiso   1.00
C58    C    -0.00777   0.18524   0.86325   0.00000  Uiso   1.00
C59    C     0.01559   0.02056   0.66628   0.00000  Uiso   1.00
O60    O     0.10821  -0.02168   0.76363   0.00000  Uiso   1.00
C61    C     0.18465   0.16589   0.73814   0.00000  Uiso   1.00
O62    O     0.08643   0.34618   0.19223   0.00000  Uiso   1.00
C63    C     0.13965   0.30931   0.05476   0.00000  Uiso   1.00
O64    O     0.12967   0.46003   0.08880   0.00000  Uiso   1.00
C65    C     0.15668   0.29924   0.46972   0.00000  Uiso   1.00
O66    O     0.22751   0.33142   0.33156   0.00000  Uiso   1.00
O67    O     0.08532   0.48863   0.28259   0.00000  Uiso   1.00
O68    O     0.17123   0.43821   0.36768   0.00000  Uiso   1.00
O69    O     0.09029   0.50324   0.95288   0.00000  Uiso   1.00
C70    C     0.96780   0.41400   0.82755   0.00000  Uiso   1.00
C71    C     1.11470   0.38846   0.84846   0.00000  Uiso   1.00
C72    C     0.15472   0.46037   0.61030   0.00000  Uiso   1.00
C73    C     0.25700   0.38440   0.67565   0.00000  Uiso   1.00
O74    O     0.06705   0.59764   0.19509   0.00000  Uiso   1.00
O75    O     0.15635   0.62350   0.07771   0.00000  Uiso   1.00
O76    O     0.04509   0.66919   0.06357   0.00000  Uiso   1.00
C77    C    -0.06288   0.73323   0.10516   0.00000  Uiso   1.00
C78    C     0.10053   0.85487   1.05664   0.00000  Uiso   1.00
C79    C     0.04141   0.55436   0.49797   0.00000  Uiso   1.00
O80    O     0.18625   0.59058   0.41140   0.00000  Uiso   1.00
C81    C     0.13140   0.72023   0.41203   0.00000  Uiso   1.00
C82    C     0.21702   0.69188   0.54905   0.00000  Uiso   1.00
C83    C    -0.01378   0.74993   0.62373   0.00000  Uiso   1.00
C84    C     0.00077   0.86368   0.50706   0.00000  Uiso   1.00
O85    O     0.13576   0.55985   0.81573   0.00000  Uiso   1.00
C86    C     0.29725   0.57280   0.73099   0.00000  Uiso   1.00
C87    C     0.26503   0.75029   0.81547   0.00000  Uiso   1.00
C88    C     0.09401   0.66632   0.72849   0.00000  Uiso   1.00
C89    C     0.12505   0.69584   0.90483   0.00000  Uiso   1.00
O90    O    -0.02314   0.72404   0.94795   0.00000  Uiso   1.00
O91    O     0.06281   0.84343   0.85688   0.00000  Uiso   1.00
C92    C     0.93011   0.84779   0.91215   0.00000  Uiso   1.00
C93    C     0.44331  -0.14719   0.12395   0.00000  Uiso   1.00
O94    O     0.46872   0.02978   0.11310   0.00000  Uiso   1.00
C95    C     0.57222   0.21128   0.14342   0.00000  Uiso   1.00
C96    C     0.44848   0.13394   0.99934   0.00000  Uiso   1.00
C97    C     0.59429   0.12676   0.47057   0.00000  Uiso   1.00
C98    C     0.41553   0.96770   0.46246   0.00000  Uiso   1.00
C99    C     0.50615   1.03496   0.31313   0.00000  Uiso   1.00
C100   C     0.20730  -0.10988   0.60323   0.00000  Uiso   1.00
C101   C     0.23282   0.02767   0.49172   0.00000  Uiso   1.00
O102   O     0.15825   0.01867   0.62696   0.00000  Uiso   1.00
C103   C     0.38740   0.14704   0.26968   0.00000  Uiso   1.00
O104   O     0.45232   0.12964   0.40650   0.00000  Uiso   1.00
C105   C     0.40572   0.26206   0.41120   0.00000  Uiso   1.00
C106   C     0.55895   0.29352   0.35041   0.00000  Uiso   1.00
C107   C     0.45069   0.98386   0.81615   0.00000  Uiso   1.00
C108   C     0.57953   0.95535   0.74976   0.00000  Uiso   1.00
O109   O     0.31145   0.07293   0.65110   0.00000  Uiso   1.00
C110   C     0.59423   0.14055   0.74759   0.00000  Uiso   1.00
C111   C     0.42160   0.19198   0.77432   0.00000  Uiso   1.00
C112   C     0.34557   0.24483   0.64018   0.00000  Uiso   1.00
C113   C     0.46524   0.18978   0.60542   0.00000  Uiso   1.00
O114   O     0.23877   0.45477   0.17639   0.00000  Uiso   1.00
C115   C     0.35762   0.64154   0.16881   0.00000  Uiso   1.00
O116   O     0.24585   0.56900   0.28704   0.00000  Uiso   1.00
O117   O     0.30608   0.45096   0.44588   0.00000  Uiso   1.00
O118   O     0.31831   0.52550   0.58351   0.00000  Uiso   1.00
O119   O     0.36656   0.53723   0.28161   0.00000  Uiso   1.00
C120   C     0.45562   0.45973   0.30826   0.00000  Uiso   1.00
C121   C     0.52530   0.62418   0.22102   0.00000  Uiso   1.00
C122   C     0.40369   0.39617   0.84739   0.00000  Uiso   1.00
C123   C     0.55206   0.56831   0.91851   0.00000  Uiso   1.00
C124   C     0.38565   0.54421   0.89789   0.00000  Uiso   1.00
C125   C     0.25248   0.57613   0.99916   0.00000  Uiso   1.00
O126   O     0.42489   0.47982   0.55245   0.00000  Uiso   1.00
C127   C     0.53293   0.43100   0.64814   0.00000  Uiso   1.00
C128   C     0.58468   0.52498   0.50503   0.00000  Uiso   1.00
O129   O     0.17456   0.76514   0.16085   0.00000  Uiso   1.00
C130   C     0.28464   0.77436   0.27898   0.00000  Uiso   1.00
O131   O     0.32629   0.90376   0.16452   0.00000  Uiso   1.00
C132   C     0.22441   0.89982   0.28173   0.00000  Uiso   1.00
C133   C     0.54861   0.74496   0.04344   0.00000  Uiso   1.00
C134   C     0.66920   0.93139   0.00989   0.00000  Uiso   1.00
C135   C     0.34155   0.87662   0.00801   0.00000  Uiso   1.00
C136   C     0.49055   0.84080   0.94616   0.00000  Uiso   1.00
O137   O     0.41962   0.61264   0.49388   0.00000  Uiso   1.00
O138   O     0.50186   0.63156   0.37843   0.00000  Uiso   1.00
C139   C     0.49500   0.78401   0.43650   0.00000  Uiso   1.00
O140   O     0.46987   0.56164   0.76807   0.00000  Uiso   1.00
O141   O     0.55192   0.60190   0.64122   0.00000  Uiso   1.00
C142   C     0.49878   0.72149   0.69106   0.00000  Uiso   1.00
O143   O     0.95756   0.19664   0.17784   0.00000  Uiso   1.00
C144   C     0.91234   1.02026   0.15573   0.00000  Uiso   1.00
O145   O     0.84605   0.12236   0.93633   0.00000  Uiso   1.00
O146   O     0.83096   0.09837   0.08146   0.00000  Uiso   1.00
O147   O     1.01652   0.27973   0.31333   0.00000  Uiso   1.00
C148   C     0.86088   0.25287   0.33214   0.00000  Uiso   1.00
C149   C     0.92584   0.13217   0.40125   0.00000  Uiso   1.00
C150   C     0.98125   0.31236   0.46393   0.00000  Uiso   1.00
O151   O     0.86083  -0.00089   0.83332   0.00000  Uiso   1.00
O152   O     0.62254   0.07096   0.88374   0.00000  Uiso   1.00
O153   O     0.73256   0.13403   1.00541   0.00000  Uiso   1.00
C154   C     0.68341   0.25301   0.94390   0.00000  Uiso   1.00
O155   O     0.58518   0.10110   1.02223   0.00000  Uiso   1.00
C156   C     0.90204   0.14248   0.63352   0.00000  Uiso   1.00
C157   C     0.72285   0.09164   0.61216   0.00000  Uiso   1.00
O158   O     0.77843   0.00815   0.71350   0.00000  Uiso   1.00
C159   C     0.81950   0.18673   0.76712   0.00000  Uiso   1.00
C160   C     0.79637   0.30820   0.14224   0.00000  Uiso   1.00
O161   O     0.88764   0.25630   0.05429   0.00000  Uiso   1.00
C162   C     0.89851   0.41948   0.02495   0.00000  Uiso   1.00
O163   O     0.97199   0.41392   0.16355   0.00000  Uiso   1.00
O164   O     0.95725   0.50821   0.28486   0.00000  Uiso   1.00
C165   C     0.84123   0.54288   0.20827   0.00000  Uiso   1.00
C166   C     0.78905   0.40409   0.33756   0.00000  Uiso   1.00
C167   C     0.64662   0.42086   0.85669   0.00000  Uiso   1.00
C168   C     0.83037   0.49730   0.88066   0.00000  Uiso   1.00
C169   C     0.74601   0.57912   0.97808   0.00000  Uiso   1.00
C170   C     0.88691   0.47056   0.64480   0.00000  Uiso   1.00
C171   C     0.77549   0.48076   0.53742   0.00000  Uiso   1.00
C172   C     0.71347   0.39315   0.68889   0.00000  Uiso   1.00
C173   C     0.67942   0.89335   0.22205   0.00000  Uiso   1.00
O174   O     0.81548   1.06633   0.22759   0.00000  Uiso   1.00
C175   C     0.66660   1.06665   0.20067   0.00000  Uiso   1.00
C176   C     0.74949   0.59801   0.36267   0.00000  Uiso   1.00
O177   O     0.89040   0.59260   0.36247   0.00000  Uiso   1.00
O178   O     0.87636   0.68775   0.48502   0.00000  Uiso   1.00
O179   O     0.58023   0.72094   0.51872   0.00000  Uiso   1.00
C180   C     0.71030   0.75807   0.43583   0.00000  Uiso   1.00
C181   C     0.71061   0.90402   0.54322   0.00000  Uiso   1.00
C182   C     1.01387   0.89758   0.26985   0.00000  Uiso   1.00
C183   C     0.70805   1.02334   0.35428   0.00000  Uiso   1.00
C184   C     0.82917   0.77345   0.21441   0.00000  Uiso   1.00
O185   O     0.90725   0.75211   0.35014   0.00000  Uiso   1.00
C186   C     0.88839   0.90950   0.35391   0.00000  Uiso   1.00
O187   O     0.75842   0.59662   0.81730   0.00000  Uiso   1.00
O188   O     0.81999   0.58659   0.68839   0.00000  Uiso   1.00
O189   O     0.91085   0.70911   0.79989   0.00000  Uiso   1.00
O190   O     0.61690   0.70473   0.77485   0.00000  Uiso   1.00
C191   C     0.73178   0.77468   0.90570   0.00000  Uiso   1.00
O192   O     0.71031   0.87524   0.79693   0.00000  Uiso   1.00
O193   O     0.59861   0.79479   0.89032   0.00000  Uiso   1.00
O194   O     0.86548   0.79857   0.59448   0.00000  Uiso   1.00
O195   O     0.71440   0.74893   0.60047   0.00000  Uiso   1.00
O196   O     0.78799   0.71270   0.71329   0.00000  Uiso   1.00
O197   O     0.82195   0.87857   0.71025   0.00000  Uiso   1.00
H198   H     0.10531   0.10236   0.33381   0.00000  Uiso   1.00
H199   H     0.20362   0.16782   0.38868   0.00000  Uiso   1.00
H200   H     0.18869   0.09671   0.29478   0.00000  Uiso   1.00
H201   H     0.29446   0.23665   0.22390   0.00000  Uiso   1.00
H202   H     0.27729   0.32445   0.18297   0.00000  Uiso   1.00
H203   H     0.22024   0.20982   0.14668   0.00000  Uiso   1.00
H204   H     0.18662   0.01461   0.97569   0.00000  Uiso   1.00
H205   H     0.10854   0.03715   0.93596   0.00000  Uiso   1.00
H206   H     0.22071   0.10394   0.91246   0.00000  Uiso   1.00
H207   H     0.22925   0.89246   0.78334   0.00000  Uiso   1.00
H208   H     0.27258   0.97022   0.88033   0.00000  Uiso   1.00
H209   H     0.26940   1.01009   0.79223   0.00000  Uiso   1.00
H210   H    -0.01265   0.03631   0.96284   0.00000  Uiso   1.00
H211   H    -0.09832  -0.00302   1.00690   0.00000  Uiso   1.00
H212   H    -0.02641   0.11420   1.02611   0.00000  Uiso   1.00
H213   H    -0.00649   0.24918   0.89124   0.00000  Uiso   1.00
H214   H    -0.01538   0.17467   0.79822   0.00000  Uiso   1.00
H215   H     0.04926   0.19001   0.88924   0.00000  Uiso   1.00
H216   H    -0.00783   0.05679   0.70802   0.00000  Uiso   1.00
H217   H    -0.03085  -0.05166   0.65625   0.00000  Uiso   1.00
H218   H     0.01914   0.04621   0.60922   0.00000  Uiso   1.00
H219   H     0.18431   0.20936   0.69435   0.00000  Uiso   1.00
H220   H     0.24543   0.18241   0.76528   0.00000  Uiso   1.00
H221   H     0.15201   0.17456   0.78353   0.00000  Uiso   1.00
H222   H     0.07643   0.27118   0.01991   0.00000  Uiso   1.00
H223   H     0.14764   0.26050   0.08845   0.00000  Uiso   1.00
H224   H     0.18256   0.34162   0.00971   0.00000  Uiso   1.00
H225   H     0.18515   0.26312   0.48785   0.00000  Uiso   1.00
H226   H     0.10133   0.25422   0.43376   0.00000  Uiso   1.00
H227   H     0.14633   0.32722   0.52156   0.00000  Uiso   1.00
H228   H     0.92588   0.36678   0.86421   0.00000  Uiso   1.00
H229   H     0.95337   0.38205   0.76411   0.00000  Uiso   1.00
H230   H     0.95535   0.46821   0.82917   0.00000  Uiso   1.00
H231   H     1.11561   0.37277   0.91314   0.00000  Uiso   1.00
H232   H     1.17549   0.42055   0.83291   0.00000  Uiso   1.00
H233   H     1.07146   0.33622   0.80051   0.00000  Uiso   1.00
H234   H     0.10533   0.39079   0.61080   0.00000  Uiso   1.00
H235   H     0.15503   0.48804   0.55315   0.00000  Uiso   1.00
H236   H     0.13158   0.49861   0.64726   0.00000  Uiso   1.00
H237   H     0.23361   0.32894   0.62601   0.00000  Uiso   1.00
H238   H     0.22341   0.36185   0.72875   0.00000  Uiso   1.00
H239   H     0.32245   0.40192   0.68935   0.00000  Uiso   1.00
H240   H    -0.12123   0.67520   0.09046   0.00000  Uiso   1.00
H241   H    -0.06629   0.79844   0.09461   0.00000  Uiso   1.00
H242   H    -0.03972   0.73479   0.16520   0.00000  Uiso   1.00
H243   H     0.15629   0.85642   1.03262   0.00000  Uiso   1.00
H244   H     0.11107   0.87892   1.11803   0.00000  Uiso   1.00
H245   H     0.08382   0.89552   1.02949   0.00000  Uiso   1.00
H246   H     0.04339   0.51802   0.54515   0.00000  Uiso   1.00
H247   H     0.00645   0.50512   0.44835   0.00000  Uiso   1.00
H248   H     0.01500   0.59869   0.51225   0.00000  Uiso   1.00
H249   H     0.11067   0.68991   0.34943   0.00000  Uiso   1.00
H250   H     0.19512   0.78408   0.41463   0.00000  Uiso   1.00
H251   H     0.08959   0.73945   0.43542   0.00000  Uiso   1.00
H252   H     0.27442   0.75306   0.53437   0.00000  Uiso   1.00
H253   H     0.23180   0.64357   0.57675   0.00000  Uiso   1.00
H254   H     0.18483   0.71445   0.59189   0.00000  Uiso   1.00
H255   H    -0.03911   0.68523   0.64630   0.00000  Uiso   1.00
H256   H     0.01248   0.80175   0.67357   0.00000  Uiso   1.00
H257   H     0.03643   0.75729   0.59243   0.00000  Uiso   1.00
H258   H     0.03911   0.92444   0.54553   0.00000  Uiso   1.00
H259   H    -0.02415   0.88553   0.45775   0.00000  Uiso   1.00
H260   H     0.03773   0.84147   0.48338   0.00000  Uiso   1.00
H261   H     0.29983   0.63351   0.71193   0.00000  Uiso   1.00
H262   H     0.36267   0.59104   0.74406   0.00000  Uiso   1.00
H263   H     0.25411   0.55084   0.77506   0.00000  Uiso   1.00
H264   H     0.28211   0.82124   0.83866   0.00000  Uiso   1.00
H265   H     0.28063   0.75219   0.75655   0.00000  Uiso   1.00
H266   H     0.29695   0.73136   0.85945   0.00000  Uiso   1.00
H267   H     0.02703   0.62286   0.73459   0.00000  Uiso   1.00
H268   H     0.10461   0.62819   0.67671   0.00000  Uiso   1.00
H269   H     0.10961   0.73566   0.71173   0.00000  Uiso   1.00
H270   H     0.06163   0.65887   0.90627   0.00000  Uiso   1.00
H271   H     0.14768   0.77010   0.90170   0.00000  Uiso   1.00
H272   H     0.15639   0.68708   0.95544   0.00000  Uiso   1.00
H273   H     0.88578   0.81619   0.95532   0.00000  Uiso   1.00
H274   H     0.90018   0.85730   0.85870   0.00000  Uiso   1.00
H275   H     0.98794   0.91469   0.93420   0.00000  Uiso   1.00
H276   H     0.50282  -0.11657   0.09882   0.00000  Uiso   1.00
H277   H     0.40301  -0.21597   0.10596   0.00000  Uiso   1.00
H278   H     0.45451  -0.14291   0.18717   0.00000  Uiso   1.00
H279   H     0.59971   0.27395   0.11444   0.00000  Uiso   1.00
H280   H     0.62672   0.22112   0.17962   0.00000  Uiso   1.00
H281   H     0.52573   0.20433   0.18325   0.00000  Uiso   1.00
H282   H     0.39538   0.06643   0.97375   0.00000  Uiso   1.00
H283   H     0.48790   0.17857   0.95958   0.00000  Uiso   1.00
H284   H     0.42256   0.16276   1.04487   0.00000  Uiso   1.00
H285   H     0.61795   0.08611   0.49050   0.00000  Uiso   1.00
H286   H     0.59265   0.16961   0.51898   0.00000  Uiso   1.00
H287   H     0.64196   0.17417   0.43531   0.00000  Uiso   1.00
H288   H     0.42120   0.98971   0.52638   0.00000  Uiso   1.00
H289   H     0.43020   0.91303   0.46364   0.00000  Uiso   1.00
H290   H     0.35081   0.93897   0.43496   0.00000  Uiso   1.00
H291   H     0.55564   1.09667   0.28992   0.00000  Uiso   1.00
H292   H     0.44453   0.99319   0.27609   0.00000  Uiso   1.00
H293   H     0.52762   0.98853   0.31925   0.00000  Uiso   1.00
H294   H     0.25765  -0.11789   0.61429   0.00000  Uiso   1.00
H295   H     0.17282  -0.14437   0.54446   0.00000  Uiso   1.00
H296   H     0.16976  -0.13176   0.65258   0.00000  Uiso   1.00
H297   H     0.17651  -0.02225   0.45324   0.00000  Uiso   1.00
H298   H     0.29534   0.03553   0.47487   0.00000  Uiso   1.00
H299   H     0.24168   0.09818   0.49242   0.00000  Uiso   1.00
H300   H     0.40453   0.18903   0.22580   0.00000  Uiso   1.00
H301   H     0.32463   0.12454   0.28976   0.00000  Uiso   1.00
H302   H     0.38993   0.08511   0.25072   0.00000  Uiso   1.00
H303   H     0.35966   0.21078   0.44009   0.00000  Uiso   1.00
H304   H     0.37192   0.27398   0.36407   0.00000  Uiso   1.00
H305   H     0.45178   0.32177   0.45048   0.00000  Uiso   1.00
H306   H     0.58959   0.31532   0.40847   0.00000  Uiso   1.00
H307   H     0.56538   0.35856   0.32958   0.00000  Uiso   1.00
H308   H     0.59505   0.27206   0.31407   0.00000  Uiso   1.00
H309   H     0.43509   0.92438   0.84888   0.00000  Uiso   1.00
H310   H     0.41066   0.95508   0.76016   0.00000  Uiso   1.00
H311   H     0.43363   1.03099   0.84362   0.00000  Uiso   1.00
H312   H     0.55680   0.94283   0.68260   0.00000  Uiso   1.00
H313   H     0.54108   0.89190   0.77047   0.00000  Uiso   1.00
H314   H     0.64353   0.97309   0.76554   0.00000  Uiso   1.00
H315   H     0.57499   0.11831   0.68577   0.00000  Uiso   1.00
H316   H     0.66419   0.18131   0.75623   0.00000  Uiso   1.00
H317   H     0.57558   0.18797   0.77452   0.00000  Uiso   1.00
H318   H     0.46974   0.26026   0.78964   0.00000  Uiso   1.00
H319   H     0.43996   0.14348   0.78916   0.00000  Uiso   1.00
H320   H     0.37289   0.18297   0.81114   0.00000  Uiso   1.00
H321   H     0.27818   0.19834   0.62062   0.00000  Uiso   1.00
H322   H     0.37260   0.28561   0.59254   0.00000  Uiso   1.00
H323   H     0.35476   0.28913   0.69237   0.00000  Uiso   1.00
H324   H     0.46971   0.12799   0.59947   0.00000  Uiso   1.00
H325   H     0.52307   0.24971   0.63219   0.00000  Uiso   1.00
H326   H     0.45438   0.20615   0.54684   0.00000  Uiso   1.00
H327   H     0.32332   0.66733   0.14346   0.00000  Uiso   1.00
H328   H     0.37477   0.61535   0.11756   0.00000  Uiso   1.00
H329   H     0.40830   0.70210   0.20413   0.00000  Uiso   1.00
H330   H     0.41360   0.41500   0.25954   0.00000  Uiso   1.00
H331   H     0.42321   0.43116   0.36095   0.00000  Uiso   1.00
H332   H     0.51992   0.47070   0.31000   0.00000  Uiso   1.00
H333   H     0.51969   0.68761   0.21688   0.00000  Uiso   1.00
H334   H     0.51093   0.59175   0.16007   0.00000  Uiso   1.00
H335   H     0.58554   0.64397   0.24404   0.00000  Uiso   1.00
H336   H     0.41066   0.37436   0.90305   0.00000  Uiso   1.00
H337   H     0.42937   0.36947   0.80427   0.00000  Uiso   1.00
H338   H     0.33901   0.36856   0.82487   0.00000  Uiso   1.00
H339   H     0.56839   0.63596   0.94428   0.00000  Uiso   1.00
H340   H     0.60307   0.57396   0.88606   0.00000  Uiso   1.00
H341   H     0.53855   0.52693   0.96728   0.00000  Uiso   1.00
H342   H     0.39449   0.60498   0.87266   0.00000  Uiso   1.00
H343   H     0.39481   0.55136   0.96281   0.00000  Uiso   1.00
H344   H     0.32021   0.49322   0.88034   0.00000  Uiso   1.00
H345   H     0.24421   0.56119   0.93614   0.00000  Uiso   1.00
H346   H     0.27435   0.53540   1.02875   0.00000  Uiso   1.00
H347   H     0.29013   0.64903   1.01767   0.00000  Uiso   1.00
H348   H     0.52831   0.37535   0.61135   0.00000  Uiso   1.00
H349   H     0.47998   0.40285   0.68401   0.00000  Uiso   1.00
H350   H     0.59296   0.46974   0.68763   0.00000  Uiso   1.00
H351   H     0.59353   0.46814   0.48175   0.00000  Uiso   1.00
H352   H     0.64611   0.57264   0.53330   0.00000  Uiso   1.00
H353   H     0.56603   0.55360   0.45759   0.00000  Uiso   1.00
H354   H     0.30601   0.73517   0.24086   0.00000  Uiso   1.00
H355   H     0.23159   0.72739   0.30512   0.00000  Uiso   1.00
H356   H     0.33192   0.82356   0.32493   0.00000  Uiso   1.00
H357   H     0.17358   0.85194   0.31805   0.00000  Uiso   1.00
H358   H     0.19248   0.92895   0.24356   0.00000  Uiso   1.00
H359   H     0.27370   0.95577   0.31497   0.00000  Uiso   1.00
H360   H     0.60151   0.73778   0.05307   0.00000  Uiso   1.00
H361   H     0.49401   0.68504   0.02312   0.00000  Uiso   1.00
H362   H     0.53720   0.77839   0.09530   0.00000  Uiso   1.00
H363   H     0.69594   0.97309  -0.03634   0.00000  Uiso   1.00
H364   H     0.71824   0.91771   0.03205   0.00000  Uiso   1.00
H365   H     0.65192   0.96574   0.05798   0.00000  Uiso   1.00
H366   H     0.33313   0.81030  -0.00115   0.00000  Uiso   1.00
H367   H     0.38281   0.92150  -0.03408   0.00000  Uiso   1.00
H368   H     0.28472   0.88152   0.00003   0.00000  Uiso   1.00
H369   H     0.50469   0.90858   0.97103   0.00000  Uiso   1.00
H370   H     0.44027   0.78797   0.97266   0.00000  Uiso   1.00
H371   H     0.47681   0.82876   0.88252   0.00000  Uiso   1.00
H372   H     0.50108   0.82891   0.48599   0.00000  Uiso   1.00
H373   H     0.44020   0.76482   0.39525   0.00000  Uiso   1.00
H374   H     0.55105   0.82344   0.40371   0.00000  Uiso   1.00
H375   H     0.47511   0.73935   0.74321   0.00000  Uiso   1.00
H376   H     0.44934   0.69213   0.64172   0.00000  Uiso   1.00
H377   H     0.54273   0.78048   0.66376   0.00000  Uiso   1.00
H378   H     0.97061   1.04600   0.13095   0.00000  Uiso   1.00
H379   H     0.85954   0.95684   0.12010   0.00000  Uiso   1.00
H380   H     0.91837   1.00509   0.21753   0.00000  Uiso   1.00
H381   H     0.81473   0.23473   0.37501   0.00000  Uiso   1.00
H382   H     0.83674   0.21522   0.27678   0.00000  Uiso   1.00
H383   H     0.89147   0.32426   0.32235   0.00000  Uiso   1.00
H384   H     0.89242   0.07755   0.34964   0.00000  Uiso   1.00
H385   H     0.88951   0.11691   0.45500   0.00000  Uiso   1.00
H386   H     0.98335   0.13733   0.41417   0.00000  Uiso   1.00
H387   H     1.02520   0.38010   0.45227   0.00000  Uiso   1.00
H388   H     1.00627   0.28439   0.50534   0.00000  Uiso   1.00
H389   H     0.92619   0.31283   0.48278   0.00000  Uiso   1.00
H390   H     0.70003   0.29561   0.99933   0.00000  Uiso   1.00
H391   H     0.62516   0.24317   0.90970   0.00000  Uiso   1.00
H392   H     0.73326   0.27798   0.90344   0.00000  Uiso   1.00
H393   H     0.90628   0.07918   0.62333   0.00000  Uiso   1.00
H394   H     0.95489   0.19206   0.67354   0.00000  Uiso   1.00
H395   H     0.89716   0.17093   0.57949   0.00000  Uiso   1.00
H396   H     0.66068   0.03133   0.61502   0.00000  Uiso   1.00
H397   H     0.74272   0.09104   0.55735   0.00000  Uiso   1.00
H398   H     0.71275   0.14669   0.61348   0.00000  Uiso   1.00
H399   H     0.76700   0.15205   0.80423   0.00000  Uiso   1.00
H400   H     0.81357   0.24197   0.74759   0.00000  Uiso   1.00
H401   H     0.87372   0.21155   0.80449   0.00000  Uiso   1.00
H402   H     0.74628   0.24072   0.11576   0.00000  Uiso   1.00
H403   H     0.77925   0.35871   0.14941   0.00000  Uiso   1.00
H404   H     0.81130   0.29969   0.20348   0.00000  Uiso   1.00
H405   H     0.86039   0.38882  -0.03070   0.00000  Uiso   1.00
H406   H     0.96287   0.46163   0.01440   0.00000  Uiso   1.00
H407   H     0.88154   0.46623   0.05239   0.00000  Uiso   1.00
H408   H     0.88613   0.55309   0.16491   0.00000  Uiso   1.00
H409   H     0.85188   0.60953   0.22169   0.00000  Uiso   1.00
H410   H     0.77787   0.49278   0.18149   0.00000  Uiso   1.00
H411   H     0.82154   0.39928   0.39094   0.00000  Uiso   1.00
H412   H     0.76564   0.34722   0.28947   0.00000  Uiso   1.00
H413   H     0.74323   0.42516   0.35835   0.00000  Uiso   1.00
H414   H     0.60024   0.42079   0.81641   0.00000  Uiso   1.00
H415   H     0.62647   0.40457   0.91290   0.00000  Uiso   1.00
H416   H     0.65039   0.36606   0.83109   0.00000  Uiso   1.00
H417   H     0.80385   0.42714   0.88341   0.00000  Uiso   1.00
H418   H     0.87955   0.54083   0.93180   0.00000  Uiso   1.00
H419   H     0.86122   0.50745   0.82939   0.00000  Uiso   1.00
H420   H     0.75136   0.54017   1.02433   0.00000  Uiso   1.00
H421   H     0.68434   0.56449   0.97925   0.00000  Uiso   1.00
H422   H     0.79328   0.65422   0.98507   0.00000  Uiso   1.00
H423   H     0.92040   0.48058   0.70314   0.00000  Uiso   1.00
H424   H     0.93428   0.51714   0.60562   0.00000  Uiso   1.00
H425   H     0.85541   0.40116   0.61573   0.00000  Uiso   1.00
H426   H     0.73348   0.50408   0.51889   0.00000  Uiso   1.00
H427   H     0.74907   0.41356   0.51187   0.00000  Uiso   1.00
H428   H     0.83142   0.51956   0.51380   0.00000  Uiso   1.00
H429   H     0.74499   0.37866   0.73621   0.00000  Uiso   1.00
H430   H     0.68054   0.33260   0.64163   0.00000  Uiso   1.00
H431   H     0.66335   0.40613   0.70204   0.00000  Uiso   1.00
H432   H     0.69845   0.86471   0.26817   0.00000  Uiso   1.00
H433   H     0.70108   0.87899   0.17212   0.00000  Uiso   1.00
H434   H     0.61239   0.86134   0.22223   0.00000  Uiso   1.00
H435   H     0.59823   1.01977   0.19840   0.00000  Uiso   1.00
H436   H     0.68532   1.09061   0.14468   0.00000  Uiso   1.00
H437   H     0.66795   1.11824   0.24306   0.00000  Uiso   1.00
H438   H     0.73247   0.64500   0.33816   0.00000  Uiso   1.00
H439   H     0.70889   0.56514   0.41209   0.00000  Uiso   1.00
H440   H     0.72835   0.53768   0.31615   0.00000  Uiso   1.00
H441   H     0.76018   0.74520   0.44991   0.00000  Uiso   1.00
H442   H     0.72983   0.81717   0.40475   0.00000  Uiso   1.00
H443   H     0.65606   0.69719   0.39799   0.00000  Uiso   1.00
H444   H     0.77942   0.94000   0.54293   0.00000  Uiso   1.00
H445   H     0.68843   0.91821   0.59835   0.00000  Uiso   1.00
H446   H     0.68115   0.91359   0.49259   0.00000  Uiso   1.00
H447   H     1.05038   0.94566   0.31817   0.00000  Uiso   1.00
H448   H     1.00656   0.92958   0.22148   0.00000  Uiso   1.00
H449   H     1.04068   0.85221   0.26109   0.00000  Uiso   1.00
H450   H     0.64264   0.97941   0.36194   0.00000  Uiso   1.00
H451   H     0.72191   1.09068   0.38001   0.00000  Uiso   1.00
H452   H     0.74515   0.99996   0.37536   0.00000  Uiso   1.00
H453   H     0.80674   0.70165   0.20411   0.00000  Uiso   1.00
H454   H     0.85629   0.80595   0.16496   0.00000  Uiso   1.00
H455   H     0.77916   0.78853   0.22202   0.00000  Uiso   1.00
H456   H     0.95124   0.97243   0.35594   0.00000  Uiso   1.00
H457   H     0.86378   0.89816   0.41231   0.00000  Uiso   1.00
H458   H     0.84518   0.92382   0.32031   0.00000  Uiso   1.00
H459   H     0.75930   0.74036   0.86906   0.00000  Uiso   1.00
H460   H     0.70445   0.73234   0.95427   0.00000  Uiso   1.00
H461   H     0.77630   0.84166   0.93387   0.00000  Uiso   1.00
loop_
_geom_bond_atom_site_label_1
_geom_bond_atom_site_label_2
_geom_bond_distance
_geom_bond_site_symmetry_2
_ccdc_geom_bond_type
Si1    O52     1.638   .     S
Si1    O62     1.535   .     S
Si1    O143    1.572   1_455 S
Si1    O147    1.547   1_455 S
Si2    O52     1.623   .     S
Si2    C53     1.904   .     S
Si2    C54     1.833   .     S
Si2    O66     1.545   .     S
Si3    C55     1.903   .     S
Si3    O60     1.621   .     S
Si3    C56     1.930   1_545 S
Si3    O91     1.623   1_545 S
Si4    C57     1.839   .     S
Si4    C58     1.861   .     S
Si4    O145    1.623   1_455 S
Si4    O151    1.651   1_455 S
Si5    C59     1.829   .     S
Si5    O60     1.566   .     S
Si5    C61     1.906   .     S
Si5    O102    1.642   .     S
Si6    O62     1.593   .     S
Si6    C63     1.871   .     S
Si6    O64     1.537   .     S
Si6    O114    1.586   .     S
Si7    O67     1.618   .     S
Si7    O74     1.614   .     S
Si7    O163    1.638   1_455 S
Si7    O164    1.617   1_455 S
Si8    O64     1.625   .     S
Si8    O75     1.578   .     S
Si8    O69     1.635   1_554 S
Si8    C125    1.802   1_554 S
Si9    C65     1.949   .     S
Si9    O66     1.565   .     S
Si9    O68     1.617   .     S
Si9    O117    1.587   .     S
Si10   O67     1.647   .     S
Si10   O68     1.573   .     S
Si10   O80     1.591   .     S
Si10   O116    1.582   .     S
Si11   O69     1.641   .     S
Si11   O85     1.629   .     S
Si11   C70     1.838   1_455 S
Si11   C71     1.890   1_455 S
Si12   C72     1.834   .     S
Si12   C73     1.836   .     S
Si12   C86     1.860   .     S
Si12   O118    1.564   .     S
Si13   O74     1.655   .     S
Si13   O75     1.601   .     S
Si13   O76     1.625   .     S
Si13   O129    1.621   .     S
Si14   O76     1.627   .     S
Si14   C77     1.865   .     S
Si14   C78     1.888   1_554 S
Si14   O90     1.631   1_554 S
Si15   C79     1.901   .     S
Si15   O80     1.640   .     S
Si15   C81     1.875   .     S
Si15   C82     1.800   .     S
Si16   C83     1.842   .     S
Si16   C84     1.854   .     S
Si16   O178    1.583   1_455 S
Si16   O194    1.588   1_455 S
Si17   O85     1.623   .     S
Si17   C87     1.854   .     S
Si17   C88     1.904   .     S
Si17   C89     1.811   .     S
Si18   O90     1.645   .     S
Si18   O91     1.593   .     S
Si18   C92     1.818   1_455 S
Si18   O189    1.656   1_455 S
Si19   C93     1.881   .     S
Si19   O94     1.629   .     S
Si19   O131    1.632   1_545 S
Si19   C135    1.840   1_545 S
Si20   O94     1.592   .     S
Si20   C95     1.871   .     S
Si20   C96     1.871   1_554 S
Si20   O155    1.626   1_554 S
Si21   C97     1.886   .     S
Si21   O104    1.605   .     S
Si21   C98     1.860   1_545 S
Si21   C99     1.873   1_545 S
Si22   C100    1.805   .     S
Si22   C101    1.888   .     S
Si22   O102    1.593   .     S
Si22   O109    1.609   .     S
Si23   C103    1.828   .     S
Si23   O104    1.579   .     S
Si23   C105    1.809   .     S
Si23   C106    1.867   .     S
Si24   C110    1.867   .     S
Si24   O152    1.606   .     S
Si24   C107    1.891   1_545 S
Si24   C108    1.871   1_545 S
Si25   O109    1.584   .     S
Si25   C111    1.902   .     S
Si25   C112    1.851   .     S
Si25   C113    1.772   .     S
Si26   O114    1.603   .     S
Si26   C115    1.910   .     S
Si26   O116    1.612   .     S
Si26   O119    1.576   .     S
Si27   O117    1.593   .     S
Si27   O118    1.564   .     S
Si27   O126    1.597   .     S
Si27   O137    1.560   .     S
Si28   O119    1.618   .     S
Si28   C120    1.787   .     S
Si28   C121    1.852   .     S
Si28   O138    1.614   .     S
Si29   C122    1.851   .     S
Si29   C123    1.861   .     S
Si29   C124    1.834   .     S
Si29   O140    1.605   .     S
Si30   O126    1.646   .     S
Si30   C127    1.891   .     S
Si30   C128    1.863   .     S
Si30   O141    1.621   .     S
Si31   O129    1.627   .     S
Si31   C130    1.894   .     S
Si31   O131    1.580   .     S
Si31   C132    1.807   .     S
Si32   C133    1.890   .     S
Si32   C134    1.811   .     S
Si32   C136    1.828   1_554 S
Si32   O193    1.561   1_554 S
Si33   O137    1.562   .     S
Si33   O138    1.609   .     S
Si33   C139    1.848   .     S
Si33   O179    1.636   .     S
Si34   O140    1.639   .     S
Si34   O141    1.618   .     S
Si34   C142    1.880   .     S
Si34   O190    1.595   .     S
Si35   O143    1.584   .     S
Si35   O146    1.601   .     S
Si35   C144    1.815   1_545 S
Si35   O174    1.592   1_545 S
Si36   O146    1.577   .     S
Si36   O161    1.584   .     S
Si36   O145    1.645   1_554 S
Si36   O153    1.582   1_554 S
Si37   O147    1.623   .     S
Si37   C148    1.830   .     S
Si37   C149    1.881   .     S
Si37   C150    1.755   .     S
Si38   O151    1.589   .     S
Si38   O158    1.631   .     S
Si38   O192    1.572   1_545 S
Si38   O197    1.661   1_545 S
Si39   O152    1.586   .     S
Si39   O153    1.650   .     S
Si39   C154    1.856   .     S
Si39   O155    1.610   .     S
Si40   C156    1.886   .     S
Si40   C157    1.883   .     S
Si40   O158    1.585   .     S
Si40   C159    1.869   .     S
Si41   C160    1.871   .     S
Si41   O161    1.646   .     S
Si41   C162    1.790   .     S
Si41   O163    1.654   .     S
Si42   O164    1.656   .     S
Si42   C165    1.915   .     S
Si42   C166    1.915   .     S
Si42   O177    1.573   .     S
Si43   C167    1.922   .     S
Si43   C168    1.901   .     S
Si43   C169    1.876   .     S
Si43   O187    1.551   .     S
Si44   C170    1.866   .     S
Si44   C171    1.881   .     S
Si44   C172    1.876   .     S
Si44   O188    1.626   .     S
Si45   C173    1.850   .     S
Si45   O174    1.589   .     S
Si45   C175    1.871   .     S
Si45   C183    1.901   .     S
Si46   C176    1.882   .     S
Si46   O177    1.602   .     S
Si46   O178    1.620   .     S
Si46   O185    1.583   .     S
Si47   O179    1.550   .     S
Si47   C180    1.871   .     S
Si47   C181    1.907   .     S
Si47   O195    1.644   .     S
Si48   C182    1.916   .     S
Si48   C184    1.847   .     S
Si48   O185    1.570   .     S
Si48   C186    1.872   .     S
Si49   O187    1.591   .     S
Si49   O188    1.574   .     S
Si49   O189    1.632   .     S
Si49   O196    1.624   .     S
Si50   O190    1.548   .     S
Si50   C191    1.835   .     S
Si50   O192    1.563   .     S
Si50   O193    1.604   .     S
Si51   O194    1.634   .     S
Si51   O195    1.591   .     S
Si51   O196    1.592   .     S
Si51   O197    1.674   .     S
C53    H198    1.079   .     S
C53    H199    1.132   .     S
C53    H200    1.120   .     S
C54    H201    1.100   .     S
C54    H202    1.097   .     S
C54    H203    1.081   .     S
C55    H204    1.127   .     S
C55    H205    1.129   .     S
C55    H206    1.162   .     S
C56    H207    1.087   .     S
C56    H208    1.141   .     S
C56    H209    1.113   .     S
C56    Si3     1.930   1_565 S
C57    H210    1.089   .     S
C57    H211    1.067   .     S
C57    H212    1.092   .     S
C58    H213    1.164   .     S
C58    H214    1.118   .     S
C58    H215    1.111   .     S
C59    H216    1.167   .     S
C59    H217    1.102   .     S
C59    H218    1.102   .     S
C61    H219    1.105   .     S
C61    H220    1.107   .     S
C61    H221    1.073   .     S
C63    H222    1.146   .     S
C63    H223    1.123   .     S
C63    H224    1.119   .     S
C65    H225    1.062   .     S
C65    H226    1.068   .     S
C65    H227    1.064   .     S
O69    Si8     1.635   1_556 S
C70    H228    1.083   .     S
C70    H229    1.148   .     S
C70    H230    1.075   .     S
C70    Si11    1.838   1_655 S
C71    H231    1.171   .     S
C71    H232    1.059   .     S
C71    H233    1.122   .     S
C71    Si11    1.890   1_655 S
C72    H234    1.093   .     S
C72    H235    1.127   .     S
C72    H236    1.141   .     S
C73    H237    1.129   .     S
C73    H238    1.124   .     S
C73    H239    1.128   .     S
C77    H240    1.057   .     S
C77    H241    1.187   .     S
C77    H242    1.100   .     S
C78    H243    1.145   .     S
C78    H244    1.084   .     S
C78    H245    1.034   .     S
C78    Si14    1.888   1_556 S
C79    H246    1.074   .     S
C79    H247    1.084   .     S
C79    H248    1.128   .     S
C81    H249    1.129   .     S
C81    H250    1.153   .     S
C81    H251    1.088   .     S
C82    H252    1.131   .     S
C82    H253    1.132   .     S
C82    H254    1.150   .     S
C83    H255    1.084   .     S
C83    H256    1.093   .     S
C83    H257    1.077   .     S
C84    H258    1.078   .     S
C84    H259    1.130   .     S
C84    H260    1.042   .     S
C86    H261    1.100   .     S
C86    H262    1.122   .     S
C86    H263    1.091   .     S
C87    H264    1.136   .     S
C87    H265    1.075   .     S
C87    H266    1.113   .     S
C88    H267    1.121   .     S
C88    H268    1.161   .     S
C88    H269    1.144   .     S
C89    H270    1.044   .     S
C89    H271    1.137   .     S
C89    H272    1.095   .     S
O90    Si14    1.631   1_556 S
O91    Si3     1.623   1_565 S
C92    H273    1.106   .     S
C92    H274    1.125   .     S
C92    H275    1.144   .     S
C92    Si18    1.818   1_655 S
C93    H276    1.108   .     S
C93    H277    1.052   .     S
C93    H278    1.094   .     S
C95    H279    1.110   .     S
C95    H280    1.110   .     S
C95    H281    1.112   .     S
C96    H282    1.129   .     S
C96    H283    1.084   .     S
C96    H284    1.159   .     S
C96    Si20    1.871   1_556 S
C97    H285    1.072   .     S
C97    H286    1.092   .     S
C97    H287    1.115   .     S
C98    H288    1.126   .     S
C98    H289    1.113   .     S
C98    H290    1.129   .     S
C98    Si21    1.860   1_565 S
C99    H291    1.128   .     S
C99    H292    1.144   .     S
C99    H293    1.076   .     S
C99    Si21    1.873   1_565 S
C100   H294    1.042   .     S
C100   H295    1.128   .     S
C100   H296    1.103   .     S
C101   H297    1.118   .     S
C101   H298    1.179   .     S
C101   H299    1.143   .     S
C103   H300    1.036   .     S
C103   H301    1.134   .     S
C103   H302    1.123   .     S
C105   H303    1.062   .     S
C105   H304    1.105   .     S
C105   H305    1.108   .     S
C106   H306    1.075   .     S
C106   H307    1.154   .     S
C106   H308    1.127   .     S
C107   H309    1.121   .     S
C107   H310    1.114   .     S
C107   H311    1.106   .     S
C107   Si24    1.891   1_565 S
C108   H312    1.185   .     S
C108   H313    1.068   .     S
C108   H314    1.106   .     S
C108   Si24    1.871   1_565 S
C110   H315    1.090   .     S
C110   H316    1.143   .     S
C110   H317    1.127   .     S
C111   H318    1.071   .     S
C111   H319    1.097   .     S
C111   H320    1.103   .     S
C112   H321    1.132   .     S
C112   H322    1.096   .     S
C112   H323    1.090   .     S
C113   H324    1.112   .     S
C113   H325    1.109   .     S
C113   H326    1.108   .     S
C115   H327    1.051   .     S
C115   H328    1.105   .     S
C115   H329    1.111   .     S
C120   H330    1.080   .     S
C120   H331    1.127   .     S
C120   H332    1.135   .     S
C121   H333    1.160   .     S
C121   H334    1.112   .     S
C121   H335    1.060   .     S
C122   H336    1.084   .     S
C122   H337    1.107   .     S
C122   H338    1.105   .     S
C123   H339    1.101   .     S
C123   H340    1.110   .     S
C123   H341    1.101   .     S
C124   H342    1.103   .     S
C124   H343    1.117   .     S
C124   H344    1.111   .     S
C125   H345    1.088   .     S
C125   H346    1.119   .     S
C125   H347    1.103   .     S
C125   Si8     1.802   1_556 S
C127   H348    1.079   .     S
C127   H349    1.117   .     S
C127   H350    1.141   .     S
C128   H351    1.129   .     S
C128   H352    1.094   .     S
C128   H353    1.116   .     S
C130   H354    1.141   .     S
C130   H355    1.074   .     S
C130   H356    1.107   .     S
O131   Si19    1.632   1_565 S
C132   H357    1.159   .     S
C132   H358    1.170   .     S
C132   H359    1.049   .     S
C133   H360    1.078   .     S
C133   H361    1.051   .     S
C133   H362    1.123   .     S
C134   H363    1.082   .     S
C134   H364    1.125   .     S
C134   H365    1.144   .     S
C135   H366    1.074   .     S
C135   H367    1.128   .     S
C135   H368    1.126   .     S
C135   Si19    1.840   1_565 S
C136   H369    1.111   .     S
C136   H370    1.087   .     S
C136   H371    1.099   .     S
C136   Si32    1.828   1_556 S
C139   H372    1.076   .     S
C139   H373    1.115   .     S
C139   H374    1.143   .     S
C142   H375    1.120   .     S
C142   H376    1.116   .     S
C142   H377    1.101   .     S
O143   Si1     1.572   1_655 S
C144   H378    1.089   .     S
C144   H379    1.151   .     S
C144   H380    1.132   .     S
C144   Si35    1.815   1_565 S
O145   Si4     1.623   1_655 S
O145   Si36    1.645   1_556 S
O147   Si1     1.547   1_655 S
C148   H381    1.113   .     S
C148   H382    1.058   .     S
C148   H383    1.099   .     S
C149   H384    1.147   .     S
C149   H385    1.153   .     S
C149   H386    1.060   .     S
C150   H387    1.085   .     S
C150   H388    1.103   .     S
C150   H389    1.114   .     S
O151   Si4     1.651   1_655 S
O153   Si36    1.582   1_556 S
C154   H390    1.095   .     S
C154   H391    1.153   .     S
C154   H392    1.128   .     S
O155   Si20    1.626   1_556 S
C156   H393    1.140   .     S
C156   H394    1.096   .     S
C156   H395    1.107   .     S
C157   H396    1.122   .     S
C157   H397    1.040   .     S
C157   H398    1.060   .     S
C159   H399    1.133   .     S
C159   H400    1.090   .     S
C159   H401    1.053   .     S
C160   H402    1.114   .     S
C160   H403    1.076   .     S
C160   H404    1.121   .     S
C162   H405    1.097   .     S
C162   H406    1.097   .     S
C162   H407    1.099   .     S
O163   Si7     1.638   1_655 S
O164   Si7     1.617   1_655 S
C165   H408    1.120   .     S
C165   H409    1.071   .     S
C165   H410    1.118   .     S
C166   H411    1.115   .     S
C166   H412    1.125   .     S
C166   H413    1.162   .     S
C167   H414    1.093   .     S
C167   H415    1.068   .     S
C167   H416    1.055   .     S
C168   H417    1.060   .     S
C168   H418    1.156   .     S
C168   H419    1.065   .     S
C169   H420    1.113   .     S
C169   H421    1.068   .     S
C169   H422    1.141   .     S
C170   H423    1.119   .     S
C170   H424    1.152   .     S
C170   H425    1.102   .     S
C171   H426    1.102   .     S
C171   H427    1.057   .     S
C171   H428    1.054   .     S
C172   H429    1.104   .     S
C172   H430    1.152   .     S
C172   H431    1.112   .     S
C173   H432    1.103   .     S
C173   H433    1.043   .     S
C173   H434    1.103   .     S
O174   Si35    1.592   1_565 S
C175   H435    1.129   .     S
C175   H436    1.086   .     S
C175   H437    1.104   .     S
C176   H438    1.114   .     S
C176   H439    1.159   .     S
C176   H440    1.152   .     S
O178   Si16    1.583   1_655 S
C180   H441    1.095   .     S
C180   H442    1.089   .     S
C180   H443    1.159   .     S
C181   H444    1.130   .     S
C181   H445    1.123   .     S
C181   H446    1.081   .     S
C182   H447    1.066   .     S
C182   H448    1.075   .     S
C182   H449    1.136   .     S
C183   H450    1.104   .     S
C183   H451    1.110   .     S
C183   H452    1.035   .     S
C184   H453    1.089   .     S
C184   H454    1.065   .     S
C184   H455    1.115   .     S
C186   H456    1.138   .     S
C186   H457    1.124   .     S
C186   H458    1.116   .     S
O189   Si18    1.656   1_655 S
C191   H459    1.149   .     S
C191   H460    1.123   .     S
C191   H461    1.090   .     S
O192   Si38    1.572   1_565 S
O193   Si32    1.561   1_556 S
O194   Si16    1.588   1_655 S
O197   Si38    1.661   1_565 S
