data_333-9-11-16-15-30-15
_audit_creation_date              2025-03-07
_audit_creation_method            'Materials Studio'
_symmetry_space_group_name_H-M    'P1'
_symmetry_Int_Tables_number       1
_symmetry_cell_setting            triclinic
loop_
_symmetry_equiv_pos_as_xyz
  x,y,z
_cell_length_a                    17.4147
_cell_length_b                    18.9211
_cell_length_c                    19.1606
_cell_angle_alpha                 80.5616
_cell_angle_beta                  95.0843
_cell_angle_gamma                 124.4804
loop_
_atom_site_label
_atom_site_type_symbol
_atom_site_fract_x
_atom_site_fract_y
_atom_site_fract_z
_atom_site_U_iso_or_equiv
_atom_site_adp_type
_atom_site_occupancy
Si1    Si    0.10929  -0.04655   0.06599   0.00000  Uiso   1.00
Si2    Si    0.01119   0.26432   0.26091   0.00000  Uiso   1.00
Si3    Si    0.10479   0.08419  -0.04895   0.00000  Uiso   1.00
Si4    Si    0.23057   0.06759   0.50924   0.00000  Uiso   1.00
Si5    Si   -0.04686   0.04121   0.83188   0.00000  Uiso   1.00
Si6    Si    0.13171   0.39951   0.14178   0.00000  Uiso   1.00
Si7    Si    0.05122   0.56863   0.24954   0.00000  Uiso   1.00
Si8    Si    0.13991   0.54354   0.02936   0.00000  Uiso   1.00
Si9    Si    0.01238   0.52971   0.90284   0.00000  Uiso   1.00
Si10   Si    0.14272   0.67615   0.10800   0.00000  Uiso   1.00
Si11   Si   -0.05899   0.84268   0.16771   0.00000  Uiso   1.00
Si12   Si    0.12996   0.81400   0.01651   0.00000  Uiso   1.00
Si13   Si    0.16211   0.71001   0.83538   0.00000  Uiso   1.00
Si14   Si   -0.00356   0.80974   0.90169   0.00000  Uiso   1.00
Si15   Si    0.48107  -0.02687   0.12716   0.00000  Uiso   1.00
Si16   Si    0.22789   0.07613   0.17761   0.00000  Uiso   1.00
Si17   Si    0.45408   0.11008   0.05014   0.00000  Uiso   1.00
Si18   Si    0.36744   0.22478   0.58403   0.00000  Uiso   1.00
Si19   Si    0.41769  -0.00390   0.80122   0.00000  Uiso   1.00
Si20   Si    0.27689   0.23523   0.86755   0.00000  Uiso   1.00
Si21   Si    0.44614   0.15162   0.70218   0.00000  Uiso   1.00
Si22   Si    0.56052   0.33941   0.51787   0.00000  Uiso   1.00
Si23   Si    0.52802   0.41898   0.38138   0.00000  Uiso   1.00
Si24   Si    0.29063   0.55806   0.94230   0.00000  Uiso   1.00
Si25   Si    0.67208   0.51447   0.71201   0.00000  Uiso   1.00
Si26   Si    0.48218   0.75162   0.12244   0.00000  Uiso   1.00
Si27   Si    0.29170   0.81664   0.18933   0.00000  Uiso   1.00
Si28   Si    0.48661   0.88882   0.00430   0.00000  Uiso   1.00
Si29   Si    0.43715   0.68448   0.37909   0.00000  Uiso   1.00
Si30   Si    0.45498   0.64527   0.66684   0.00000  Uiso   1.00
Si31   Si    0.33999   0.77798   0.34437   0.00000  Uiso   1.00
Si32   Si    0.30319   0.85976   0.92757   0.00000  Uiso   1.00
Si33   Si    0.59417   0.82316   0.57544   0.00000  Uiso   1.00
Si34   Si    0.84003   0.04202   0.06977   0.00000  Uiso   1.00
Si35   Si    0.64438   0.09613   0.21267   0.00000  Uiso   1.00
Si36   Si    0.89648   0.21682  -0.02286   0.00000  Uiso   1.00
Si37   Si    0.82611  -0.03071   0.36638   0.00000  Uiso   1.00
Si38   Si    0.81323   0.12789   0.30769   0.00000  Uiso   1.00
Si39   Si    0.80158   0.07607   0.80701   0.00000  Uiso   1.00
Si40   Si    0.87402   0.26090   0.73364   0.00000  Uiso   1.00
Si41   Si    0.84076   0.47399  -0.01469   0.00000  Uiso   1.00
Si42   Si    0.82430   0.24249   0.40746   0.00000  Uiso   1.00
Si43   Si    0.73687   0.46149   0.59848   0.00000  Uiso   1.00
Si44   Si    0.86119   0.40797   0.31545   0.00000  Uiso   1.00
Si45   Si    0.91899   0.42727   0.77917   0.00000  Uiso   1.00
Si46   Si    0.93538   0.51151   0.62198   0.00000  Uiso   1.00
Si47   Si    0.78097   0.66851   0.13178   0.00000  Uiso   1.00
Si48   Si    0.63163   0.80847   0.43097   0.00000  Uiso   1.00
Si49   Si    0.84563   0.85776   0.28080   0.00000  Uiso   1.00
Si50   Si    1.05734   0.70962   0.56757   0.00000  Uiso   1.00
Si51   Si    0.62228   0.92242   0.88833   0.00000  Uiso   1.00
C52    C     0.05769   0.31969   0.33958   0.00000  Uiso   1.00
O53    O     0.11507   0.01062  -0.00904   0.00000  Uiso   1.00
C54    C     0.19385   0.07528   0.41738   0.00000  Uiso   1.00
C55    C     0.13160   1.02431   0.57189   0.00000  Uiso   1.00
C56    C     0.27838   0.99642   0.52081   0.00000  Uiso   1.00
O57    O     0.00703   0.04202   0.90527   0.00000  Uiso   1.00
C58    C    -0.11002  -0.07108   0.80533   0.00000  Uiso   1.00
O59    O     0.04611   0.33268   0.19306   0.00000  Uiso   1.00
C60    C     0.10781   0.14343   0.01772   0.00000  Uiso   1.00
C61    C     0.14147   0.33469   0.08221   0.00000  Uiso   1.00
C62    C     0.24229   0.45148   0.19595   0.00000  Uiso   1.00
C63    C     0.05226   0.64043   0.30058   0.00000  Uiso   1.00
C64    C     1.14449   0.55685   0.28494   0.00000  Uiso   1.00
O65    O     0.11561   0.47062   0.09647   0.00000  Uiso   1.00
O66    O     0.05624   0.50347   0.97325   0.00000  Uiso   1.00
O67    O     0.07286   0.60730   0.16774   0.00000  Uiso   1.00
O68    O     0.15539   0.62863   0.05527   0.00000  Uiso   1.00
C69    C    -0.00566   0.79109   0.22351   0.00000  Uiso   1.00
O70    O     0.00971   0.91048   0.10315   0.00000  Uiso   1.00
O71    O     0.10627   0.73234   0.06837   0.00000  Uiso   1.00
O72    O     0.12560   0.87841   0.05817   0.00000  Uiso   1.00
O73    O     0.07667   0.63017   0.87919   0.00000  Uiso   1.00
C74    C     0.20643   0.67138   0.78176   0.00000  Uiso   1.00
C75    C     0.12824   0.77585   0.77584   0.00000  Uiso   1.00
O76    O     0.05319   0.78323   0.95549   0.00000  Uiso   1.00
C77    C     0.08486   0.91312   0.84972   0.00000  Uiso   1.00
C78    C     0.92106   0.81842   0.95822   0.00000  Uiso   1.00
O79    O     0.19224   0.01308   0.11834   0.00000  Uiso   1.00
C80    C     0.32139   0.07601   0.23789   0.00000  Uiso   1.00
C81    C     0.28049   0.19236   0.13734   0.00000  Uiso   1.00
C82    C     0.12877   0.04509   0.23289   0.00000  Uiso   1.00
O83    O     0.45036   0.04016   0.10682   0.00000  Uiso   1.00
C84    C     0.48569   0.20896   0.08789   0.00000  Uiso   1.00
C85    C     0.54231   0.14397   0.98074   0.00000  Uiso   1.00
O86    O     0.31109   0.16202   0.52494   0.00000  Uiso   1.00
C87    C     0.29459   0.25893   0.60937   0.00000  Uiso   1.00
C88    C     0.54729   0.06558   0.82041   0.00000  Uiso   1.00
C89    C     0.31414   0.20789   0.79364   0.00000  Uiso   1.00
C90    C     0.38021   0.28136   0.92841   0.00000  Uiso   1.00
C91    C     0.33961   0.06662   1.00862   0.00000  Uiso   1.00
C92    C     0.25574   0.31853   0.83736   0.00000  Uiso   1.00
O93    O     0.19042   0.14492   0.89666   0.00000  Uiso   1.00
O94    O     0.37759   0.17018   0.65345   0.00000  Uiso   1.00
O95    O     0.39687   0.06206   0.75770   0.00000  Uiso   1.00
C96    C     0.53152   0.24483   0.74901   0.00000  Uiso   1.00
C97    C     0.52154   0.14136   0.65091   0.00000  Uiso   1.00
O98    O     0.46709   0.30830   0.55720   0.00000  Uiso   1.00
C99    C     0.53156   0.24469   0.47584   0.00000  Uiso   1.00
C100   C     0.39683   0.35280   0.39328   0.00000  Uiso   1.00
O101   O     0.57941   0.41200   0.45277   0.00000  Uiso   1.00
C102   C     0.55507   0.37656   0.31185   0.00000  Uiso   1.00
C103   C     0.21621   0.48300   0.87357   0.00000  Uiso   1.00
C104   C     0.36279   0.52055   0.99972   0.00000  Uiso   1.00
C105   C     0.37352   0.67004   0.90354   0.00000  Uiso   1.00
O106   O     0.23381   0.56965   0.99586   0.00000  Uiso   1.00
C107   C     0.56109   0.48736   0.66317   0.00000  Uiso   1.00
C108   C     0.63821   0.46761   0.80620   0.00000  Uiso   1.00
C109   C     0.75933   0.63462   0.70520   0.00000  Uiso   1.00
C110   C     0.35592   0.66160   0.14089   0.00000  Uiso   1.00
C111   C     0.55440   0.70791   0.11776   0.00000  Uiso   1.00
C112   C     0.51774   0.80420   0.20559   0.00000  Uiso   1.00
O113   O     0.24044   0.73435   0.14795   0.00000  Uiso   1.00
O114   O     0.40299   0.88490   0.17114   0.00000  Uiso   1.00
C115   C     0.23623   0.87680   0.18266   0.00000  Uiso   1.00
O116   O     0.49569   0.81471   0.05060   0.00000  Uiso   1.00
O117   O     0.50556   0.95806   0.05519   0.00000  Uiso   1.00
C118   C     0.38563   0.63988   0.46793   0.00000  Uiso   1.00
C119   C     0.56487   0.53049   0.35826   0.00000  Uiso   1.00
C120   C     0.42389   0.60212   0.33399   0.00000  Uiso   1.00
C121   C     0.37713   0.53575   0.64056   0.00000  Uiso   1.00
C122   C     0.38027   0.67361   0.69526   0.00000  Uiso   1.00
C123   C     0.53140   0.64924   0.74131   0.00000  Uiso   1.00
O124   O     0.28417   0.78034   0.27328   0.00000  Uiso   1.00
O125   O     0.38308   0.72262   0.33837   0.00000  Uiso   1.00
C126   C     0.26590   0.74550   0.42169   0.00000  Uiso   1.00
C127   C     0.43639   0.89120   0.35239   0.00000  Uiso   1.00
O128   O     0.24133   0.77465   0.88937   0.00000  Uiso   1.00
O129   O     0.38279   0.84886   0.97110   0.00000  Uiso   1.00
O130   O     0.34748   0.94148   0.87028   0.00000  Uiso   1.00
O131   O     0.23588   0.85794   0.98447   0.00000  Uiso   1.00
O132   O     0.51796   0.72053   0.60387   0.00000  Uiso   1.00
C133   C     0.71195   0.85244   0.61578   0.00000  Uiso   1.00
C134   C     0.54992   0.88865   0.59704   0.00000  Uiso   1.00
C135   C     0.39646   0.92172   0.73663   0.00000  Uiso   1.00
C136   C     0.90839   0.06932   0.14946   0.00000  Uiso   1.00
C137   C     1.05978   0.19504   0.26244   0.00000  Uiso   1.00
C138   C     0.71470   0.99828   0.08669   0.00000  Uiso   1.00
C139   C     0.84750   0.95602   0.04150   0.00000  Uiso   1.00
O140   O     0.57259   0.01193   0.17748   0.00000  Uiso   1.00
C141   C     0.70768   0.19422   0.14363   0.00000  Uiso   1.00
C142   C     0.57675   0.10901   0.27029   0.00000  Uiso   1.00
C143   C     1.03434   0.11799   0.75990   0.00000  Uiso   1.00
C144   C     0.99724   0.28347   0.91603   0.00000  Uiso   1.00
O145   O     0.87916   0.12295   0.00956   0.00000  Uiso   1.00
C146   C     0.91874   0.28248   0.04292   0.00000  Uiso   1.00
C147   C     0.78605   0.20136   0.93699   0.00000  Uiso   1.00
C148   C     0.89948  -0.01833   0.44742   0.00000  Uiso   1.00
O149   O     0.89999   0.20705   0.26197   0.00000  Uiso   1.00
O150   O     0.72315   0.08548   0.25807   0.00000  Uiso   1.00
O151   O     0.84005   0.05937   0.33109   0.00000  Uiso   1.00
O152   O     0.88882   0.07358   0.84157   0.00000  Uiso   1.00
C153   C     0.76466   1.02926   0.72223   0.00000  Uiso   1.00
C154   C     0.97712   0.28332   0.69107   0.00000  Uiso   1.00
C155   C     0.78483   0.25297   0.66971   0.00000  Uiso   1.00
O156   O     0.83029   0.17419   0.79066   0.00000  Uiso   1.00
O157   O     0.91349   0.50555   0.92474   0.00000  Uiso   1.00
C158   C     0.89925   0.48175   0.07034   0.00000  Uiso   1.00
C159   C     0.73786   0.36076   0.98788   0.00000  Uiso   1.00
C160   C     0.71883   0.22159   0.44881   0.00000  Uiso   1.00
O161   O     0.79748   0.15760   0.37512   0.00000  Uiso   1.00
C162   C     0.91440   0.27301   0.48040   0.00000  Uiso   1.00
O163   O     0.64890   0.37651   0.56982   0.00000  Uiso   1.00
C164   C     0.76574   0.56070   0.53589   0.00000  Uiso   1.00
O165   O     0.71520   0.47429   0.67304   0.00000  Uiso   1.00
O166   O     0.95077   0.47605   0.26411   0.00000  Uiso   1.00
C167   C     0.75320   0.37059   0.26479   0.00000  Uiso   1.00
O168   O     0.85694   0.32277   0.34486   0.00000  Uiso   1.00
C169   C     0.84771   0.44792   0.39461   0.00000  Uiso   1.00
C170   C     0.79865   0.39385   0.79990   0.00000  Uiso   1.00
O171   O     0.91454   0.34402   0.77250   0.00000  Uiso   1.00
O172   O     0.99688   0.47653   0.83902   0.00000  Uiso   1.00
C173   C     0.99906   0.48386   0.57052   0.00000  Uiso   1.00
O174   O     0.82531   0.45763   0.60775   0.00000  Uiso   1.00
O175   O     0.95371   0.49044   0.70502   0.00000  Uiso   1.00
C176   C     0.70557   0.60291   0.21277   0.00000  Uiso   1.00
C177   C     0.79079   0.53616  -0.02504   0.00000  Uiso   1.00
C178   C     0.84313   0.61419   0.12450   0.00000  Uiso   1.00
C179   C     0.71219   0.65954   0.04897   0.00000  Uiso   1.00
O180   O     0.84893   0.77062   0.13392   0.00000  Uiso   1.00
O181   O     0.54275   0.76268   0.38010   0.00000  Uiso   1.00
C182   C     0.66721   0.72978   0.46570   0.00000  Uiso   1.00
O183   O     0.71650   0.89224   0.38744   0.00000  Uiso   1.00
O184   O     0.60778   0.83759   0.49229   0.00000  Uiso   1.00
O185   O     0.90911   0.88402   0.21758   0.00000  Uiso   1.00
C186   C     0.72369   0.79257   0.25449   0.00000  Uiso   1.00
C187   C     0.87244   0.80303   0.35847   0.00000  Uiso   1.00
O188   O     0.85989   0.94099   0.30887   0.00000  Uiso   1.00
C189   C     1.03840   0.78641   0.59782   0.00000  Uiso   1.00
O190   O     0.97862   0.61074   0.60373   0.00000  Uiso   1.00
C191   C     1.04891   0.72292   0.47465   0.00000  Uiso   1.00
C192   C     1.17819   0.74314   0.58721   0.00000  Uiso   1.00
C193   C     0.91497   0.72290   0.84677   0.00000  Uiso   1.00
C194   C     0.54882   0.87346   0.80961   0.00000  Uiso   1.00
C195   C     0.65123   0.84177   0.92989   0.00000  Uiso   1.00
O196   O     0.71551   1.01583   0.86288   0.00000  Uiso   1.00
O197   O     0.56651   0.93197   0.94384   0.00000  Uiso   1.00
H198   H     0.13329   0.35128   0.33798   0.00000  Uiso   1.00
H199   H     0.03506   0.27111   0.38697   0.00000  Uiso   1.00
H200   H     0.04211   0.37066   0.33705   0.00000  Uiso   1.00
H201   H     0.24753   0.09437   0.38354   0.00000  Uiso   1.00
H202   H     0.17432   0.12443   0.40708   0.00000  Uiso   1.00
H203   H     0.13857   0.00874   0.40462   0.00000  Uiso   1.00
H204   H     0.15004   1.00491   0.62132   0.00000  Uiso   1.00
H205   H     0.06411   0.97175   0.55289   0.00000  Uiso   1.00
H206   H     0.11671   1.07490   0.57706   0.00000  Uiso   1.00
H207   H     0.34510   1.03685   0.49067   0.00000  Uiso   1.00
H208   H     0.23319   0.93669   0.49403   0.00000  Uiso   1.00
H209   H     0.29719   0.98592   0.57514   0.00000  Uiso   1.00
H210   H    -0.16098  -0.08567   0.76125   0.00000  Uiso   1.00
H211   H    -0.14377  -0.11890   0.85363   0.00000  Uiso   1.00
H212   H    -0.05440  -0.07564   0.78699   0.00000  Uiso   1.00
H213   H     0.04214   0.14465   0.01290   0.00000  Uiso   1.00
H214   H     0.17130   0.20929   0.00579   0.00000  Uiso   1.00
H215   H     0.10843   0.10975   0.07029   0.00000  Uiso   1.00
H216   H     0.20834   0.33566   0.09698   0.00000  Uiso   1.00
H217   H     0.16002   0.37661   0.03053   0.00000  Uiso   1.00
H218   H     0.07852   0.26919   0.07752   0.00000  Uiso   1.00
H219   H     0.24986   0.50130   0.22585   0.00000  Uiso   1.00
H220   H     0.31051   0.48582   0.16796   0.00000  Uiso   1.00
H221   H     0.24140   0.39749   0.23251   0.00000  Uiso   1.00
H222   H     0.10764   0.70953   0.29299   0.00000  Uiso   1.00
H223   H     0.06125   0.62348   0.35800   0.00000  Uiso   1.00
H224   H    -0.01705   0.62477   0.29584   0.00000  Uiso   1.00
H225   H     1.13811   0.53941   0.34262   0.00000  Uiso   1.00
H226   H     1.21518   0.61507   0.27188   0.00000  Uiso   1.00
H227   H     1.13087   0.50586   0.25806   0.00000  Uiso   1.00
H228   H    -0.05951   0.73784   0.26053   0.00000  Uiso   1.00
H229   H     0.05852   0.83728   0.24726   0.00000  Uiso   1.00
H230   H     0.00626   0.75602   0.19093   0.00000  Uiso   1.00
H231   H     0.16230   0.65184   0.73619   0.00000  Uiso   1.00
H232   H     0.21056   0.62000   0.81128   0.00000  Uiso   1.00
H233   H     0.27726   0.72338   0.76200   0.00000  Uiso   1.00
H234   H     0.05997   0.73011   0.75114   0.00000  Uiso   1.00
H235   H     0.18509   0.83263   0.74198   0.00000  Uiso   1.00
H236   H     0.11332   0.80492   0.81191   0.00000  Uiso   1.00
H237   H     0.08285   0.96756   0.86169   0.00000  Uiso   1.00
H238   H     0.06830   0.90746   0.79230   0.00000  Uiso   1.00
H239   H     0.15863   0.93023   0.85793   0.00000  Uiso   1.00
H240   H     0.85081   0.78599   0.93873   0.00000  Uiso   1.00
H241   H     0.94617   0.88544   0.96084   0.00000  Uiso   1.00
H242   H     0.91268   0.78415   1.01209   0.00000  Uiso   1.00
H243   H     0.29028   0.02402   0.28200   0.00000  Uiso   1.00
H244   H     0.36706   0.13503   0.26151   0.00000  Uiso   1.00
H245   H     0.36357   0.06745   0.20995   0.00000  Uiso   1.00
H246   H     0.28074   0.20188   0.08117   0.00000  Uiso   1.00
H247   H     0.35280   0.23653   0.15827   0.00000  Uiso   1.00
H248   H     0.23718   0.21766   0.14474   0.00000  Uiso   1.00
H249   H     0.10248  -0.01935   0.26662   0.00000  Uiso   1.00
H250   H     0.07200   0.04130   0.19650   0.00000  Uiso   1.00
H251   H     0.15347   0.09407   0.27002   0.00000  Uiso   1.00
H252   H     0.46437   0.25188   0.05678   0.00000  Uiso   1.00
H253   H     0.56414   0.25424   0.09313   0.00000  Uiso   1.00
H254   H     0.46372   0.18973   0.14374   0.00000  Uiso   1.00
H255   H     0.54874   0.19684   0.94098   0.00000  Uiso   1.00
H256   H     0.53422   0.08876   0.95993   0.00000  Uiso   1.00
H257   H     0.60585   0.17024   1.01036   0.00000  Uiso   1.00
H258   H     0.23195   0.19952   0.63319   0.00000  Uiso   1.00
H259   H     0.27012   0.28833   0.56377   0.00000  Uiso   1.00
H260   H     0.32774   0.30727   0.64550   0.00000  Uiso   1.00
H261   H     0.59185   0.06838   0.78056   0.00000  Uiso   1.00
H262   H     0.55244   0.03874   0.87002   0.00000  Uiso   1.00
H263   H     0.57266   0.13503   0.82382   0.00000  Uiso   1.00
H264   H     0.25791   0.17700   0.75841   0.00000  Uiso   1.00
H265   H     0.32655   0.15628   0.81696   0.00000  Uiso   1.00
H266   H     0.37808   0.27003   0.77195   0.00000  Uiso   1.00
H267   H     0.39962   0.23759   0.94674   0.00000  Uiso   1.00
H268   H     0.36946   0.29881   0.97490   0.00000  Uiso   1.00
H269   H     0.43322   0.33849   0.89451   0.00000  Uiso   1.00
H270   H     0.29551  -0.00220   1.03040   0.00000  Uiso   1.00
H271   H     0.35225   0.07592   0.95232   0.00000  Uiso   1.00
H272   H     0.30708   0.09788   1.02441   0.00000  Uiso   1.00
H273   H     0.18983   0.29971   0.86120   0.00000  Uiso   1.00
H274   H     0.24517   0.31894   0.78091   0.00000  Uiso   1.00
H275   H     0.31725   0.38693   0.84521   0.00000  Uiso   1.00
H276   H     0.59808   0.24927   0.75801   0.00000  Uiso   1.00
H277   H     0.50731   0.23572   0.80328   0.00000  Uiso   1.00
H278   H     0.54752   0.30342   0.71663   0.00000  Uiso   1.00
H279   H     0.56153   0.11777   0.67924   0.00000  Uiso   1.00
H280   H     0.57098   0.20656   0.62351   0.00000  Uiso   1.00
H281   H     0.47549   0.09484   0.61447   0.00000  Uiso   1.00
H282   H     0.59729   0.26511   0.44735   0.00000  Uiso   1.00
H283   H     0.47709   0.23144   0.43517   0.00000  Uiso   1.00
H284   H     0.49741   0.18251   0.51206   0.00000  Uiso   1.00
H285   H     0.35619   0.35456   0.34485   0.00000  Uiso   1.00
H286   H     0.38753   0.37450   0.43869   0.00000  Uiso   1.00
H287   H     0.37329   0.28244   0.40574   0.00000  Uiso   1.00
H288   H     0.52130   0.30497   0.32339   0.00000  Uiso   1.00
H289   H     0.62694   0.40746   0.30458   0.00000  Uiso   1.00
H290   H     0.53146   0.39282   0.25860   0.00000  Uiso   1.00
H291   H     0.14808   0.47804   0.86511   0.00000  Uiso   1.00
H292   H     0.20109   0.41902   0.89414   0.00000  Uiso   1.00
H293   H     0.24848   0.50422   0.81950   0.00000  Uiso   1.00
H294   H     0.43162   0.56447   0.97926   0.00000  Uiso   1.00
H295   H     0.33197   0.45377   0.99640   0.00000  Uiso   1.00
H296   H     0.36180   0.53151   1.05577   0.00000  Uiso   1.00
H297   H     0.42101   0.71369   0.94515   0.00000  Uiso   1.00
H298   H     0.33668   0.69508   0.86817   0.00000  Uiso   1.00
H299   H     0.41668   0.66433   0.86999   0.00000  Uiso   1.00
H300   H     0.58229   0.52742   0.60887   0.00000  Uiso   1.00
H301   H     0.52525   0.50229   0.69558   0.00000  Uiso   1.00
H302   H     0.52088   0.41795   0.66072   0.00000  Uiso   1.00
H303   H     0.69078   0.45603   0.83306   0.00000  Uiso   1.00
H304   H     0.57111   0.40266   0.81293   0.00000  Uiso   1.00
H305   H     0.63085   0.50723   0.83955   0.00000  Uiso   1.00
H306   H     0.74209   0.66407   0.65442   0.00000  Uiso   1.00
H307   H     0.83161   0.64818   0.70280   0.00000  Uiso   1.00
H308   H     0.74068   0.65071   0.75399   0.00000  Uiso   1.00
H309   H     0.33267   0.64631   0.19655   0.00000  Uiso   1.00
H310   H     0.35312   0.61285   0.11445   0.00000  Uiso   1.00
H311   H     0.31274   0.67634   0.10584   0.00000  Uiso   1.00
H312   H     0.62819   0.75943   0.11774   0.00000  Uiso   1.00
H313   H     0.54278   0.68017   0.06705   0.00000  Uiso   1.00
H314   H     0.53524   0.65274   0.16376   0.00000  Uiso   1.00
H315   H     0.58081   0.87391   0.19603   0.00000  Uiso   1.00
H316   H     0.53646   0.76859   0.24535   0.00000  Uiso   1.00
H317   H     0.46362   0.80511   0.22561   0.00000  Uiso   1.00
H318   H     0.16070   0.82572   0.17292   0.00000  Uiso   1.00
H319   H     0.27788   0.93361   0.14058   0.00000  Uiso   1.00
H320   H     0.25556   0.90648   0.23058   0.00000  Uiso   1.00
H321   H     0.41020   0.60029   0.49527   0.00000  Uiso   1.00
H322   H     0.30689   0.60922   0.46622   0.00000  Uiso   1.00
H323   H     0.41257   0.69218   0.49595   0.00000  Uiso   1.00
H324   H     0.53984   0.53803   0.40335   0.00000  Uiso   1.00
H325   H     0.52948   0.54061   0.31150   0.00000  Uiso   1.00
H326   H     0.64166   0.57773   0.35974   0.00000  Uiso   1.00
H327   H     0.48021   0.63256   0.29327   0.00000  Uiso   1.00
H328   H     0.35729   0.56611   0.31125   0.00000  Uiso   1.00
H329   H     0.42834   0.55643   0.37308   0.00000  Uiso   1.00
H330   H     0.34962   0.48758   0.68604   0.00000  Uiso   1.00
H331   H     0.41536   0.51488   0.61763   0.00000  Uiso   1.00
H332   H     0.32196   0.52661   0.60310   0.00000  Uiso   1.00
H333   H     0.35569   0.69966   0.64971   0.00000  Uiso   1.00
H334   H     0.42450   0.72721   0.72595   0.00000  Uiso   1.00
H335   H     0.32467   0.61350   0.72616   0.00000  Uiso   1.00
H336   H     0.54309   0.70202   0.76964   0.00000  Uiso   1.00
H337   H     0.59689   0.66069   0.71803   0.00000  Uiso   1.00
H338   H     0.48877   0.58310   0.77114   0.00000  Uiso   1.00
H339   H     0.21034   0.67615   0.43588   0.00000  Uiso   1.00
H340   H     0.24412   0.78972   0.41901   0.00000  Uiso   1.00
H341   H     0.31656   0.76565   0.46697   0.00000  Uiso   1.00
H342   H     0.46005   0.89844   0.40667   0.00000  Uiso   1.00
H343   H     0.40600   0.92894   0.34218   0.00000  Uiso   1.00
H344   H     0.49071   0.91215   0.31775   0.00000  Uiso   1.00
H345   H     0.71233   0.85005   0.67130   0.00000  Uiso   1.00
H346   H     0.76721   0.91002   0.58179   0.00000  Uiso   1.00
H347   H     0.72586   0.80583   0.60569   0.00000  Uiso   1.00
H348   H     0.48254   0.87384   0.57239   0.00000  Uiso   1.00
H349   H     0.60490   0.96015   0.57642   0.00000  Uiso   1.00
H350   H     0.53966   0.88406   0.65600   0.00000  Uiso   1.00
H351   H     0.39256   0.86424   0.76086   0.00000  Uiso   1.00
H352   H     0.45529   0.95323   0.69536   0.00000  Uiso   1.00
H353   H     0.33410   0.90945   0.70278   0.00000  Uiso   1.00
H354   H     0.97478   0.07630   0.13706   0.00000  Uiso   1.00
H355   H     0.86637   0.01085   0.19107   0.00000  Uiso   1.00
H356   H     0.91759   0.13001   0.16272   0.00000  Uiso   1.00
H357   H     1.05913   0.18217   0.20871   0.00000  Uiso   1.00
H358   H     1.02128   0.13306   0.29740   0.00000  Uiso   1.00
H359   H     1.13608   0.22910   0.27801   0.00000  Uiso   1.00
H360   H     0.68741   1.03466   0.04892   0.00000  Uiso   1.00
H361   H     0.70810   1.00337   0.14444   0.00000  Uiso   1.00
H362   H     0.67838   0.92612   0.07837   0.00000  Uiso   1.00
H363   H     0.82542   0.95432  -0.01938   0.00000  Uiso   1.00
H364   H     0.79290   0.88611   0.06424   0.00000  Uiso   1.00
H365   H     0.91731   0.96915   0.04224   0.00000  Uiso   1.00
H366   H     0.65873   0.21214   0.12296   0.00000  Uiso   1.00
H367   H     0.71926   0.16630   0.10158   0.00000  Uiso   1.00
H368   H     0.77356   0.24857   0.15459   0.00000  Uiso   1.00
H369   H     0.59134   0.17524   0.26264   0.00000  Uiso   1.00
H370   H     0.57793   0.08222   0.32155   0.00000  Uiso   1.00
H371   H     0.50710   0.07704   0.24831   0.00000  Uiso   1.00
H372   H     0.98434   0.11189   0.71231   0.00000  Uiso   1.00
H373   H     1.08266   0.09911   0.75487   0.00000  Uiso   1.00
H374   H     1.07425   0.18713   0.77085   0.00000  Uiso   1.00
H375   H     1.06319   0.29516   0.93948   0.00000  Uiso   1.00
H376   H     1.00238   0.34436   0.90518   0.00000  Uiso   1.00
H377   H     0.98280   0.25152   0.86872   0.00000  Uiso   1.00
H378   H     0.92106   0.25048   0.09511   0.00000  Uiso   1.00
H379   H     0.87116   0.30168   0.04884   0.00000  Uiso   1.00
H380   H     0.98265   0.34572   0.02413   0.00000  Uiso   1.00
H381   H     0.79317   0.25248   0.89720   0.00000  Uiso   1.00
H382   H     0.74492   0.19567   0.98308   0.00000  Uiso   1.00
H383   H     0.74688   0.13773   0.91464   0.00000  Uiso   1.00
H384   H     0.97693   0.03023   0.43595   0.00000  Uiso   1.00
H385   H     0.87648  -0.08992   0.46537   0.00000  Uiso   1.00
H386   H     0.87525  -0.01626   0.49678   0.00000  Uiso   1.00
H387   H     0.81618   1.07871   0.68047   0.00000  Uiso   1.00
H388   H     0.69606   1.01904   0.71116   0.00000  Uiso   1.00
H389   H     0.75550   0.96713   0.72384   0.00000  Uiso   1.00
H390   H     1.02447   0.28087   0.73607   0.00000  Uiso   1.00
H391   H     1.01763   0.34669   0.65977   0.00000  Uiso   1.00
H392   H     0.95199   0.22941   0.65699   0.00000  Uiso   1.00
H393   H     0.71829   0.22101   0.69924   0.00000  Uiso   1.00
H394   H     0.77258   0.21130   0.63105   0.00000  Uiso   1.00
H395   H     0.81706   0.31967   0.64129   0.00000  Uiso   1.00
H396   H     0.85156   0.45965   0.11719   0.00000  Uiso   1.00
H397   H     0.95051   0.54884   0.07193   0.00000  Uiso   1.00
H398   H     0.92143   0.43611   0.08225   0.00000  Uiso   1.00
H399   H     0.69624   0.34526   0.93464   0.00000  Uiso   1.00
H400   H     0.68823   0.35128   1.02627   0.00000  Uiso   1.00
H401   H     0.75639   0.31331   1.00255   0.00000  Uiso   1.00
H402   H     0.65063   0.19442   0.41421   0.00000  Uiso   1.00
H403   H     0.73603   0.28180   0.47118   0.00000  Uiso   1.00
H404   H     0.70114   0.17240   0.49628   0.00000  Uiso   1.00
H405   H     0.96661   0.34392   0.47112   0.00000  Uiso   1.00
H406   H     0.94465   0.23365   0.49824   0.00000  Uiso   1.00
H407   H     0.87955   0.26342   0.53061   0.00000  Uiso   1.00
H408   H     0.70131   0.55895   0.51555   0.00000  Uiso   1.00
H409   H     0.81343   0.57717   0.49047   0.00000  Uiso   1.00
H410   H     0.80715   0.61503   0.56594   0.00000  Uiso   1.00
H411   H     0.69393   0.31640   0.29689   0.00000  Uiso   1.00
H412   H     0.75478   0.34113   0.21982   0.00000  Uiso   1.00
H413   H     0.73253   0.41565   0.24020   0.00000  Uiso   1.00
H414   H     0.77766   0.42197   0.40641   0.00000  Uiso   1.00
H415   H     0.87598   0.51889   0.37513   0.00000  Uiso   1.00
H416   H     0.88497   0.44021   0.44512   0.00000  Uiso   1.00
H417   H     0.81362   0.45958   0.79150   0.00000  Uiso   1.00
H418   H     0.78255   0.36639   0.85684   0.00000  Uiso   1.00
H419   H     0.74136   0.34946   0.76654   0.00000  Uiso   1.00
H420   H     0.95640   0.41120   0.56575   0.00000  Uiso   1.00
H421   H     1.06687   0.49895   0.59597   0.00000  Uiso   1.00
H422   H     1.02354   0.52181   0.51881   0.00000  Uiso   1.00
H423   H     0.66687   0.53305   0.20751   0.00000  Uiso   1.00
H424   H     0.65014   0.61315   0.22192   0.00000  Uiso   1.00
H425   H     0.74923   0.62133   0.25785   0.00000  Uiso   1.00
H426   H     0.72453   0.50712   0.00398   0.00000  Uiso   1.00
H427   H     0.77194   0.53778  -0.08372   0.00000  Uiso   1.00
H428   H     0.84085   0.60633  -0.01462   0.00000  Uiso   1.00
H429   H     0.88141   0.62251   0.17482   0.00000  Uiso   1.00
H430   H     0.89766   0.64623   0.08437   0.00000  Uiso   1.00
H431   H     0.79369   0.54412   0.12579   0.00000  Uiso   1.00
H432   H     0.71957   0.72109   0.02350   0.00000  Uiso   1.00
H433   H     0.64052   0.61174   0.06011   0.00000  Uiso   1.00
H434   H     0.73311   0.63996   0.00599   0.00000  Uiso   1.00
H435   H     0.60699   0.67342   0.49526   0.00000  Uiso   1.00
H436   H     0.72498   0.75892   0.50235   0.00000  Uiso   1.00
H437   H     0.69102   0.71411   0.42500   0.00000  Uiso   1.00
H438   H     0.72077   0.75916   0.21166   0.00000  Uiso   1.00
H439   H     0.69687   0.83258   0.23643   0.00000  Uiso   1.00
H440   H     0.68404   0.74843   0.29883   0.00000  Uiso   1.00
H441   H     0.94716   0.83176   0.36724   0.00000  Uiso   1.00
H442   H     0.83690   0.73503   0.34886   0.00000  Uiso   1.00
H443   H     0.84795   0.80545   0.40933   0.00000  Uiso   1.00
H444   H     0.99827   0.80034   0.55698   0.00000  Uiso   1.00
H445   H     1.10574   0.84642   0.60820   0.00000  Uiso   1.00
H446   H     0.99971   0.75938   0.64950   0.00000  Uiso   1.00
H447   H     1.10351   0.78788   0.44923   0.00000  Uiso   1.00
H448   H     0.98370   0.71564   0.46083   0.00000  Uiso   1.00
H449   H     1.05492   0.67655   0.45046   0.00000  Uiso   1.00
H450   H     1.23089   0.80738   0.56111   0.00000  Uiso   1.00
H451   H     1.19720   0.70173   0.57537   0.00000  Uiso   1.00
H452   H     1.19537   0.75054   0.64419   0.00000  Uiso   1.00
H453   H     0.84186   0.68159   0.86023   0.00000  Uiso   1.00
H454   H     0.94393   0.68646   0.84887   0.00000  Uiso   1.00
H455   H     0.92807   0.75054   0.78682   0.00000  Uiso   1.00
H456   H     0.58960   0.86182   0.77500   0.00000  Uiso   1.00
H457   H     0.55343   0.93122   0.78116   0.00000  Uiso   1.00
H458   H     0.47458   0.82064   0.82306   0.00000  Uiso   1.00
H459   H     0.71536   0.85892   0.90693   0.00000  Uiso   1.00
H460   H     0.60057   0.77233   0.93054   0.00000  Uiso   1.00
H461   H     0.66970   0.84683   0.98324   0.00000  Uiso   1.00
loop_
_geom_bond_atom_site_label_1
_geom_bond_atom_site_label_2
_geom_bond_distance
_geom_bond_site_symmetry_2
_ccdc_geom_bond_type
Si1    O53     1.625   .     S
Si1    O79     1.623   .     S
Si1    O70     1.615   1_545 S
Si1    O72     1.629   1_545 S
Si2    C52     1.835   .     S
Si2    O59     1.559   .     S
Si2    C137    1.917   1_455 S
Si2    O149    1.596   1_455 S
Si3    O53     1.570   .     S
Si3    C60     1.811   .     S
Si3    O57     1.653   1_554 S
Si3    O93     1.604   1_554 S
Si4    C54     1.830   .     S
Si4    O86     1.586   .     S
Si4    C55     1.878   1_545 S
Si4    C56     1.922   1_545 S
Si5    O57     1.617   .     S
Si5    C58     1.895   .     S
Si5    C143    1.837   1_455 S
Si5    O152    1.586   1_455 S
Si6    O59     1.582   .     S
Si6    C61     1.888   .     S
Si6    C62     1.894   .     S
Si6    O65     1.626   .     S
Si7    C63     1.791   .     S
Si7    O67     1.597   .     S
Si7    C64     1.820   1_455 S
Si7    O166    1.632   1_455 S
Si8    O65     1.609   .     S
Si8    O68     1.631   .     S
Si8    O66     1.610   1_554 S
Si8    O106    1.580   1_554 S
Si9    O66     1.636   .     S
Si9    O73     1.572   .     S
Si9    O157    1.589   1_455 S
Si9    O172    1.618   1_455 S
Si10   O67     1.566   .     S
Si10   O68     1.562   .     S
Si10   O71     1.589   .     S
Si10   O113    1.618   .     S
Si11   C69     1.862   .     S
Si11   O70     1.616   .     S
Si11   O180    1.575   1_455 S
Si11   O185    1.632   1_455 S
Si12   O71     1.547   .     S
Si12   O72     1.601   .     S
Si12   O76     1.599   1_554 S
Si12   O131    1.664   1_554 S
Si13   O73     1.569   .     S
Si13   C74     1.792   .     S
Si13   C75     1.857   .     S
Si13   O128    1.649   .     S
Si14   O76     1.582   .     S
Si14   C77     1.847   .     S
Si14   C78     1.865   1_455 S
Si14   C193    1.866   1_455 S
Si15   O83     1.617   .     S
Si15   O140    1.626   .     S
Si15   O114    1.587   1_545 S
Si15   O117    1.592   1_545 S
Si16   O79     1.606   .     S
Si16   C80     1.912   .     S
Si16   C81     1.887   .     S
Si16   C82     1.849   .     S
Si17   O83     1.542   .     S
Si17   C84     1.880   .     S
Si17   C85     1.873   1_554 S
Si17   C91     1.833   1_554 S
Si18   O86     1.606   .     S
Si18   C87     1.845   .     S
Si18   O94     1.607   .     S
Si18   O98     1.600   .     S
Si19   C88     1.900   .     S
Si19   O95     1.582   .     S
Si19   O130    1.650   1_545 S
Si19   C135    1.884   1_545 S
Si20   C89     1.865   .     S
Si20   C90     1.882   .     S
Si20   C92     1.809   .     S
Si20   O93     1.556   .     S
Si21   O94     1.609   .     S
Si21   O95     1.632   .     S
Si21   C96     1.855   .     S
Si21   C97     1.818   .     S
Si22   O98     1.597   .     S
Si22   C99     1.869   .     S
Si22   O101    1.597   .     S
Si22   O163    1.608   .     S
Si23   C100    1.897   .     S
Si23   O101    1.596   .     S
Si23   C102    1.879   .     S
Si23   C119    1.808   .     S
Si24   C103    1.912   .     S
Si24   C104    1.950   .     S
Si24   C105    1.826   .     S
Si24   O106    1.606   .     S
Si25   C107    1.894   .     S
Si25   C108    1.861   .     S
Si25   C109    1.876   .     S
Si25   O165    1.622   .     S
Si26   C110    1.887   .     S
Si26   C111    1.870   .     S
Si26   C112    1.887   .     S
Si26   O116    1.605   .     S
Si27   O113    1.599   .     S
Si27   O114    1.638   .     S
Si27   C115    1.850   .     S
Si27   O124    1.628   .     S
Si28   O116    1.611   .     S
Si28   O117    1.627   .     S
Si28   O129    1.628   1_554 S
Si28   O197    1.623   1_554 S
Si29   C118    1.832   .     S
Si29   C120    1.796   .     S
Si29   O125    1.572   .     S
Si29   O181    1.579   .     S
Si30   C121    1.851   .     S
Si30   C122    1.813   .     S
Si30   C123    1.843   .     S
Si30   O132    1.609   .     S
Si31   O124    1.611   .     S
Si31   O125    1.618   .     S
Si31   C126    1.838   .     S
Si31   C127    1.850   .     S
Si32   O128    1.604   .     S
Si32   O129    1.650   .     S
Si32   O130    1.560   .     S
Si32   O131    1.653   .     S
Si33   O132    1.641   .     S
Si33   C133    1.919   .     S
Si33   C134    1.899   .     S
Si33   O184    1.588   .     S
Si34   C136    1.804   .     S
Si34   O145    1.587   .     S
Si34   C138    1.883   1_545 S
Si34   C139    1.871   1_545 S
Si35   O140    1.582   .     S
Si35   C141    1.883   .     S
Si35   C142    1.819   .     S
Si35   O150    1.650   .     S
Si36   O145    1.642   .     S
Si36   C146    1.779   .     S
Si36   C144    1.848   1_554 S
Si36   C147    1.884   1_554 S
Si37   C148    1.878   .     S
Si37   O151    1.614   .     S
Si37   O183    1.651   1_545 S
Si37   O188    1.585   1_545 S
Si38   O149    1.592   .     S
Si38   O150    1.603   .     S
Si38   O151    1.599   .     S
Si38   O161    1.593   .     S
Si39   O152    1.625   .     S
Si39   O156    1.606   .     S
Si39   C153    1.865   1_545 S
Si39   O196    1.625   1_545 S
Si40   C154    1.831   .     S
Si40   C155    1.842   .     S
Si40   O156    1.616   .     S
Si40   O171    1.600   .     S
Si41   C158    1.824   .     S
Si41   C177    1.798   .     S
Si41   O157    1.576   1_554 S
Si41   C159    1.854   1_554 S
Si42   C160    1.868   .     S
Si42   O161    1.615   .     S
Si42   C162    1.897   .     S
Si42   O168    1.617   .     S
Si43   O163    1.608   .     S
Si43   C164    1.875   .     S
Si43   O165    1.598   .     S
Si43   O174    1.576   .     S
Si44   O166    1.625   .     S
Si44   C167    1.837   .     S
Si44   O168    1.580   .     S
Si44   C169    1.889   .     S
Si45   C170    1.875   .     S
Si45   O171    1.559   .     S
Si45   O172    1.633   .     S
Si45   O175    1.609   .     S
Si46   C173    1.870   .     S
Si46   O174    1.604   .     S
Si46   O175    1.624   .     S
Si46   O190    1.564   .     S
Si47   C176    1.886   .     S
Si47   C178    1.892   .     S
Si47   C179    1.871   .     S
Si47   O180    1.601   .     S
Si48   O181    1.609   .     S
Si48   C182    1.921   .     S
Si48   O183    1.589   .     S
Si48   O184    1.554   .     S
Si49   O185    1.534   .     S
Si49   C186    1.826   .     S
Si49   C187    1.850   .     S
Si49   O188    1.625   .     S
Si50   C189    1.846   .     S
Si50   O190    1.643   .     S
Si50   C191    1.762   .     S
Si50   C192    1.844   .     S
Si51   C194    1.883   .     S
Si51   C195    1.902   .     S
Si51   O196    1.614   .     S
Si51   O197    1.597   .     S
C52    H198    1.096   .     S
C52    H199    1.097   .     S
C52    H200    1.133   .     S
C54    H201    1.036   .     S
C54    H202    1.143   .     S
C54    H203    1.122   .     S
C55    H204    1.049   .     S
C55    H205    1.106   .     S
C55    H206    1.145   .     S
C55    Si4     1.878   1_565 S
C56    H207    1.112   .     S
C56    H208    1.128   .     S
C56    H209    1.084   .     S
C56    Si4     1.922   1_565 S
O57    Si3     1.653   1_556 S
C58    H210    1.115   .     S
C58    H211    1.114   .     S
C58    H212    1.111   .     S
C60    H213    1.152   .     S
C60    H214    1.104   .     S
C60    H215    1.103   .     S
C61    H216    1.164   .     S
C61    H217    1.106   .     S
C61    H218    1.107   .     S
C62    H219    1.121   .     S
C62    H220    1.116   .     S
C62    H221    1.133   .     S
C63    H222    1.093   .     S
C63    H223    1.117   .     S
C63    H224    1.067   .     S
C64    H225    1.097   .     S
C64    H226    1.105   .     S
C64    H227    1.065   .     S
C64    Si7     1.820   1_655 S
O66    Si8     1.610   1_556 S
C69    H228    1.101   .     S
C69    H229    1.074   .     S
C69    H230    1.090   .     S
O70    Si1     1.615   1_565 S
O72    Si1     1.629   1_565 S
C74    H231    1.075   .     S
C74    H232    1.078   .     S
C74    H233    1.104   .     S
C75    H234    1.121   .     S
C75    H235    1.112   .     S
C75    H236    1.080   .     S
O76    Si12    1.599   1_556 S
C77    H237    1.111   .     S
C77    H238    1.119   .     S
C77    H239    1.136   .     S
C78    H240    1.076   .     S
C78    H241    1.091   .     S
C78    H242    1.099   .     S
C78    Si14    1.865   1_655 S
C80    H243    1.087   .     S
C80    H244    1.087   .     S
C80    H245    1.042   .     S
C81    H246    1.062   .     S
C81    H247    1.129   .     S
C81    H248    1.126   .     S
C82    H249    1.130   .     S
C82    H250    1.133   .     S
C82    H251    1.123   .     S
C84    H252    1.139   .     S
C84    H253    1.135   .     S
C84    H254    1.101   .     S
C85    H255    1.110   .     S
C85    H256    1.109   .     S
C85    H257    1.073   .     S
C85    Si17    1.873   1_556 S
C87    H258    1.093   .     S
C87    H259    1.139   .     S
C87    H260    1.090   .     S
C88    H261    1.110   .     S
C88    H262    1.024   .     S
C88    H263    1.137   .     S
C89    H264    1.059   .     S
C89    H265    1.131   .     S
C89    H266    1.111   .     S
C90    H267    1.060   .     S
C90    H268    1.065   .     S
C90    H269    1.090   .     S
C91    H270    1.098   .     S
C91    H271    1.086   .     S
C91    H272    1.109   .     S
C91    Si17    1.833   1_556 S
C92    H273    1.109   .     S
C92    H274    1.081   .     S
C92    H275    1.145   .     S
O93    Si3     1.604   1_556 S
C96    H276    1.113   .     S
C96    H277    1.107   .     S
C96    H278    1.071   .     S
C97    H279    1.088   .     S
C97    H280    1.097   .     S
C97    H281    1.099   .     S
C99    H282    1.139   .     S
C99    H283    1.111   .     S
C99    H284    1.110   .     S
C100   H285    1.124   .     S
C100   H286    1.081   .     S
C100   H287    1.137   .     S
C102   H288    1.119   .     S
C102   H289    1.050   .     S
C102   H290    1.127   .     S
C103   H291    1.135   .     S
C103   H292    1.091   .     S
C103   H293    1.123   .     S
C104   H294    1.063   .     S
C104   H295    1.068   .     S
C104   H296    1.130   .     S
C105   H297    1.152   .     S
C105   H298    1.121   .     S
C105   H299    1.091   .     S
O106   Si8     1.580   1_556 S
C107   H300    1.134   .     S
C107   H301    1.087   .     S
C107   H302    1.091   .     S
C108   H303    1.122   .     S
C108   H304    1.114   .     S
C108   H305    1.126   .     S
C109   H306    1.143   .     S
C109   H307    1.137   .     S
C109   H308    1.154   .     S
C110   H309    1.108   .     S
C110   H310    1.099   .     S
C110   H311    1.087   .     S
C111   H312    1.088   .     S
C111   H313    1.128   .     S
C111   H314    1.155   .     S
C112   H315    1.138   .     S
C112   H316    1.085   .     S
C112   H317    1.058   .     S
O114   Si15    1.587   1_565 S
C115   H318    1.129   .     S
C115   H319    1.126   .     S
C115   H320    1.083   .     S
O117   Si15    1.592   1_565 S
C118   H321    1.101   .     S
C118   H322    1.147   .     S
C118   H323    1.045   .     S
C119   H324    1.065   .     S
C119   H325    1.095   .     S
C119   H326    1.112   .     S
C120   H327    1.119   .     S
C120   H328    1.055   .     S
C120   H329    1.081   .     S
C121   H330    1.067   .     S
C121   H331    1.095   .     S
C121   H332    1.095   .     S
C122   H333    1.104   .     S
C122   H334    1.095   .     S
C122   H335    1.102   .     S
C123   H336    1.123   .     S
C123   H337    1.151   .     S
C123   H338    1.110   .     S
C126   H339    1.106   .     S
C126   H340    1.090   .     S
C126   H341    1.126   .     S
C127   H342    1.085   .     S
C127   H343    1.092   .     S
C127   H344    1.045   .     S
O129   Si28    1.628   1_556 S
O130   Si19    1.650   1_565 S
O131   Si12    1.664   1_556 S
C133   H345    1.057   .     S
C133   H346    1.108   .     S
C133   H347    1.086   .     S
C134   H348    1.118   .     S
C134   H349    1.152   .     S
C134   H350    1.141   .     S
C135   H351    1.077   .     S
C135   H352    1.152   .     S
C135   H353    1.137   .     S
C135   Si19    1.884   1_565 S
C136   H354    1.130   .     S
C136   H355    1.137   .     S
C136   H356    1.135   .     S
C137   H357    1.094   .     S
C137   H358    1.098   .     S
C137   H359    1.137   .     S
C137   Si2     1.917   1_655 S
C138   H360    1.170   .     S
C138   H361    1.148   .     S
C138   H362    1.169   .     S
C138   Si34    1.883   1_565 S
C139   H363    1.195   .     S
C139   H364    1.142   .     S
C139   H365    1.094   .     S
C139   Si34    1.871   1_565 S
C141   H366    1.105   .     S
C141   H367    1.122   .     S
C141   H368    1.054   .     S
C142   H369    1.115   .     S
C142   H370    1.033   .     S
C142   H371    1.085   .     S
C143   H372    1.176   .     S
C143   H373    1.101   .     S
C143   H374    1.128   .     S
C143   Si5     1.837   1_655 S
C144   H375    1.106   .     S
C144   H376    1.089   .     S
C144   H377    1.104   .     S
C144   Si36    1.848   1_556 S
C146   H378    1.091   .     S
C146   H379    1.096   .     S
C146   H380    1.105   .     S
C147   H381    1.082   .     S
C147   H382    1.139   .     S
C147   H383    1.134   .     S
C147   Si36    1.884   1_556 S
C148   H384    1.138   .     S
C148   H385    1.171   .     S
C148   H386    1.084   .     S
O149   Si2     1.596   1_655 S
O152   Si5     1.586   1_655 S
C153   H387    1.119   .     S
C153   H388    1.103   .     S
C153   H389    1.089   .     S
C153   Si39    1.865   1_565 S
C154   H390    1.153   .     S
C154   H391    1.085   .     S
C154   H392    1.149   .     S
C155   H393    1.113   .     S
C155   H394    1.090   .     S
C155   H395    1.110   .     S
O157   Si9     1.589   1_655 S
O157   Si41    1.576   1_556 S
C158   H396    1.134   .     S
C158   H397    1.065   .     S
C158   H398    1.116   .     S
C159   H399    1.174   .     S
C159   H400    1.102   .     S
C159   H401    1.104   .     S
C159   Si41    1.854   1_556 S
C160   H402    1.181   .     S
C160   H403    1.150   .     S
C160   H404    1.112   .     S
C162   H405    1.108   .     S
C162   H406    1.130   .     S
C162   H407    1.117   .     S
C164   H408    1.139   .     S
C164   H409    1.136   .     S
C164   H410    1.091   .     S
O166   Si7     1.632   1_655 S
C167   H411    1.096   .     S
C167   H412    1.110   .     S
C167   H413    1.124   .     S
C169   H414    1.056   .     S
C169   H415    1.142   .     S
C169   H416    1.153   .     S
C170   H417    1.102   .     S
C170   H418    1.115   .     S
C170   H419    1.106   .     S
O172   Si9     1.618   1_655 S
C173   H420    1.150   .     S
C173   H421    1.129   .     S
C173   H422    1.083   .     S
C176   H423    1.111   .     S
C176   H424    1.119   .     S
C176   H425    1.062   .     S
C177   H426    1.113   .     S
C177   H427    1.144   .     S
C177   H428    1.144   .     S
C178   H429    1.103   .     S
C178   H430    1.089   .     S
C178   H431    1.095   .     S
C179   H432    1.125   .     S
C179   H433    1.062   .     S
C179   H434    1.120   .     S
O180   Si11    1.575   1_655 S
C182   H435    1.095   .     S
C182   H436    1.088   .     S
C182   H437    1.068   .     S
O183   Si37    1.651   1_565 S
O185   Si11    1.632   1_655 S
C186   H438    1.096   .     S
C186   H439    1.094   .     S
C186   H440    1.056   .     S
C187   H441    1.099   .     S
C187   H442    1.108   .     S
C187   H443    1.116   .     S
O188   Si37    1.585   1_565 S
C189   H444    1.102   .     S
C189   H445    1.109   .     S
C189   H446    1.122   .     S
C191   H447    1.102   .     S
C191   H448    1.077   .     S
C191   H449    1.114   .     S
C192   H450    1.090   .     S
C192   H451    1.068   .     S
C192   H452    1.116   .     S
C193   H453    1.079   .     S
C193   H454    1.055   .     S
C193   H455    1.166   .     S
C193   Si14    1.866   1_655 S
C194   H456    1.141   .     S
C194   H457    1.100   .     S
C194   H458    1.117   .     S
C195   H459    1.085   .     S
C195   H460    1.090   .     S
C195   H461    1.047   .     S
O196   Si39    1.625   1_565 S
O197   Si28    1.623   1_556 S
