data_333-9-11-16-15-30-9
_audit_creation_date              2025-03-07
_audit_creation_method            'Materials Studio'
_symmetry_space_group_name_H-M    'P1'
_symmetry_Int_Tables_number       1
_symmetry_cell_setting            triclinic
loop_
_symmetry_equiv_pos_as_xyz
  x,y,z
_cell_length_a                    18.8090
_cell_length_b                    18.7951
_cell_length_c                    18.1234
_cell_angle_alpha                 87.0261
_cell_angle_beta                  87.7867
_cell_angle_gamma                 127.7538
loop_
_atom_site_label
_atom_site_type_symbol
_atom_site_fract_x
_atom_site_fract_y
_atom_site_fract_z
_atom_site_U_iso_or_equiv
_atom_site_adp_type
_atom_site_occupancy
Si1    Si   -0.00847   0.14733   0.24492   0.00000  Uiso   1.00
Si2    Si    0.32098   0.10846  -0.20107   0.00000  Uiso   1.00
Si3    Si    0.13743  -0.02610   0.37813   0.00000  Uiso   1.00
Si4    Si    0.12220   0.10341   0.27774   0.00000  Uiso   1.00
Si5    Si    0.04329   0.54993   0.22133   0.00000  Uiso   1.00
Si6    Si    0.19820   0.62154  -0.01208   0.00000  Uiso   1.00
Si7    Si    0.02496   0.50210   0.52084   0.00000  Uiso   1.00
Si8    Si    0.18581   0.53228   0.26542   0.00000  Uiso   1.00
Si9    Si    0.07279   0.30883   0.63202   0.00000  Uiso   1.00
Si10   Si    0.01963   0.55184   0.92120   0.00000  Uiso   1.00
Si11   Si    0.16794   0.50925   0.59746   0.00000  Uiso   1.00
Si12   Si    0.17645   0.71966   0.11387   0.00000  Uiso   1.00
Si13   Si   -0.00586   0.77297   0.23151   0.00000  Uiso   1.00
Si14   Si    0.17423   0.84094   0.00322   0.00000  Uiso   1.00
Si15   Si    0.13368   0.70243   0.45029   0.00000  Uiso   1.00
Si16   Si    0.15597   0.83043   0.31349   0.00000  Uiso   1.00
Si17   Si    0.21096   0.60419   0.73624   0.00000  Uiso   1.00
Si18   Si   -0.08892   0.91223   1.00261   0.00000  Uiso   1.00
Si19   Si    0.47790   0.01644   0.10540   0.00000  Uiso   1.00
Si20   Si    0.23379   0.15267   0.13447   0.00000  Uiso   1.00
Si21   Si    0.55188   0.19454   0.00963   0.00000  Uiso   1.00
Si22   Si    0.53605   0.04282   0.36358   0.00000  Uiso   1.00
Si23   Si    0.25832   0.11065   0.48556   0.00000  Uiso   1.00
Si24   Si    0.46320   0.24128   0.89592   0.00000  Uiso   1.00
Si25   Si    0.58294   0.30003   0.14428   0.00000  Uiso   1.00
Si26   Si    0.46407   0.25524   0.48371   0.00000  Uiso   1.00
Si27   Si    0.35764   0.56380   0.59682   0.00000  Uiso   1.00
Si28   Si    0.58010   0.40492   0.35984   0.00000  Uiso   1.00
Si29   Si    0.35392   0.47958   0.74934   0.00000  Uiso   1.00
Si30   Si    0.32031   0.86497   0.21531   0.00000  Uiso   1.00
Si31   Si    0.53828   0.75430   0.60612   0.00000  Uiso   1.00
Si32   Si    0.23072   0.83507   0.57212   0.00000  Uiso   1.00
Si33   Si    0.46551   0.86748   0.28920   0.00000  Uiso   1.00
Si34   Si    0.22152   0.33874   0.87654   0.00000  Uiso   1.00
Si35   Si    0.80223   0.02513   0.19987   0.00000  Uiso   1.00
Si36   Si    0.95232   0.22298   0.37316   0.00000  Uiso   1.00
Si37   Si    0.70410   0.22209   0.90264   0.00000  Uiso   1.00
Si38   Si    0.92108   0.39095   0.13116   0.00000  Uiso   1.00
Si39   Si    0.72566   0.43811   0.23620   0.00000  Uiso   1.00
Si40   Si    0.87501   0.49691   0.04662   0.00000  Uiso   1.00
Si41   Si    0.90292   0.34670   0.41693   0.00000  Uiso   1.00
Si42   Si    0.87637   0.46861   0.32257   0.00000  Uiso   1.00
Si43   Si    0.88932   0.39245   0.82363   0.00000  Uiso   1.00
Si44   Si    0.71241   0.57335   0.74444   0.00000  Uiso   1.00
Si45   Si    0.90100   0.46766   0.65586   0.00000  Uiso   1.00
Si46   Si    0.85806   0.61448   0.14582   0.00000  Uiso   1.00
Si47   Si    0.80462   0.70808   0.04087   0.00000  Uiso   1.00
Si48   Si    0.76311   0.74599   0.46117   0.00000  Uiso   1.00
Si49   Si    0.59317   0.90522   0.70641   0.00000  Uiso   1.00
Si50   Si    0.85562   0.78010   0.30930   0.00000  Uiso   1.00
Si51   Si    0.87875   0.76974   0.72693   0.00000  Uiso   1.00
C52    C     0.06277   0.22012   0.15929   0.00000  Uiso   1.00
C53    C     0.19030   0.02566  -0.17992   0.00000  Uiso   1.00
C54    C     0.36031   0.19826  -0.27527   0.00000  Uiso   1.00
C55    C     0.35587   0.03916   0.77023   0.00000  Uiso   1.00
C56    C     0.04143   0.89312   0.44781   0.00000  Uiso   1.00
O57    O     0.04357   0.11251   0.28497   0.00000  Uiso   1.00
O58    O     0.10565   0.01708   0.32049   0.00000  Uiso   1.00
C59    C     0.22081   0.21098   0.30969   0.00000  Uiso   1.00
C60    C     0.19650   0.53359   0.03495   0.00000  Uiso   1.00
C61    C     0.31153   0.69586   0.93360   0.00000  Uiso   1.00
O62    O     0.12243   0.56013   0.26093   0.00000  Uiso   1.00
C63    C     0.19256   0.50315   0.36397   0.00000  Uiso   1.00
C64    C     0.13122   0.41957   0.22764   0.00000  Uiso   1.00
C65    C    -0.03677   0.24323   0.58702   0.00000  Uiso   1.00
C66    C     0.16321   0.31143   0.58618   0.00000  Uiso   1.00
C67    C     0.04694   0.24733   0.72398   0.00000  Uiso   1.00
O68    O     0.12051   0.59262   0.93455   0.00000  Uiso   1.00
O69    O     0.11732   0.51940   0.53645   0.00000  Uiso   1.00
O70    O     0.11019   0.40952   0.63801   0.00000  Uiso   1.00
O71    O     0.09217   0.63877   0.16379   0.00000  Uiso   1.00
O72    O     0.20783   0.68145   0.05140   0.00000  Uiso   1.00
C73    C     0.02314   0.86715   0.16533   0.00000  Uiso   1.00
O74    O     0.15767   0.78371   0.07515   0.00000  Uiso   1.00
C75    C     0.23187   0.95869   0.02486   0.00000  Uiso   1.00
C76    C     0.24557   0.84378   0.92796   0.00000  Uiso   1.00
O77    O     0.04925   0.59596   0.47862   0.00000  Uiso   1.00
C78    C     0.30047   0.62377   0.21182   0.00000  Uiso   1.00
C79    C     0.24009   0.71317   0.42589   0.00000  Uiso   1.00
O80    O     0.08029   0.78921   0.25672   0.00000  Uiso   1.00
O81    O     0.11693   0.74827   0.38023   0.00000  Uiso   1.00
O82    O     0.16645   0.91654   0.34159   0.00000  Uiso   1.00
C83    C     0.01272   0.63301   0.86648   0.00000  Uiso   1.00
C84    C     0.16569   0.50908   0.80920   0.00000  Uiso   1.00
O85    O     0.18214   0.57203   0.65874   0.00000  Uiso   1.00
C86    C     0.16969   0.66506   0.75954   0.00000  Uiso   1.00
C87    C     0.33810   0.69475   0.73041   0.00000  Uiso   1.00
C88    C    -0.03684   1.00496   1.06796   0.00000  Uiso   1.00
C89    C     0.06039   0.79526   0.97361   0.00000  Uiso   1.00
C90    C    -0.18136   0.90716   0.96103   0.00000  Uiso   1.00
C91    C     0.58348   0.07757   0.14625   0.00000  Uiso   1.00
C92    C     0.46616   0.92452   0.04883   0.00000  Uiso   1.00
C93    C     0.21062   0.13283   0.03565   0.00000  Uiso   1.00
C94    C     0.29869   0.11262   0.16652   0.00000  Uiso   1.00
O95    O     0.15218   0.11396   0.19302   0.00000  Uiso   1.00
O96    O     0.48588   0.08942   0.04628   0.00000  Uiso   1.00
C97    C     0.64259   0.15896   0.34041   0.00000  Uiso   1.00
C98    C     0.53148   0.01619   0.46045   0.00000  Uiso   1.00
O99    O     0.21922   0.05348   0.41737   0.00000  Uiso   1.00
C100   C     0.21235   0.03847   0.57676   0.00000  Uiso   1.00
C101   C     0.22890   0.18866   0.49738   0.00000  Uiso   1.00
C102   C     0.55323   0.27591   0.82129   0.00000  Uiso   1.00
O103   O     0.48745   0.21388   0.97183   0.00000  Uiso   1.00
C104   C     0.45606   0.33499   0.91944   0.00000  Uiso   1.00
O105   O     0.36955   0.15334   0.87204   0.00000  Uiso   1.00
C106   C     0.31049   0.27764   0.13751   0.00000  Uiso   1.00
C107   C     0.50053   0.21486   0.22360   0.00000  Uiso   1.00
O108   O     0.59828   0.25582   0.07567   0.00000  Uiso   1.00
C109   C     0.54345   0.36278   0.10440   0.00000  Uiso   1.00
O110   O     0.36593   0.16519   0.47084   0.00000  Uiso   1.00
C111   C     0.52868   0.22071   0.52936   0.00000  Uiso   1.00
C112   C     0.45258   0.33177   0.53885   0.00000  Uiso   1.00
C113   C     0.39856   0.52103   0.52372   0.00000  Uiso   1.00
O114   O     0.26548   0.54498   0.56999   0.00000  Uiso   1.00
C115   C     0.51225   0.42849   0.30650   0.00000  Uiso   1.00
O116   O     0.52051   0.30729   0.40499   0.00000  Uiso   1.00
O117   O     0.33346   0.51107   0.67454   0.00000  Uiso   1.00
C118   C     0.41159   0.43034   0.72169   0.00000  Uiso   1.00
C119   C     0.43341   0.57696   0.80989   0.00000  Uiso   1.00
O120   O     0.25950   0.78342   0.16598   0.00000  Uiso   1.00
O121   O     0.38423   0.95792   0.16170   0.00000  Uiso   1.00
O122   O     0.25407   0.86814   0.27438   0.00000  Uiso   1.00
O123   O     0.43853   0.67064   0.59772   0.00000  Uiso   1.00
C124   C     0.64949   0.49499   0.42184   0.00000  Uiso   1.00
C125   C     0.60046   0.71152   0.64037   0.00000  Uiso   1.00
O126   O     0.15768   0.76047   0.52242   0.00000  Uiso   1.00
C127   C     0.30505   0.80681   0.59428   0.00000  Uiso   1.00
C128   C     0.31059   0.94972   0.51988   0.00000  Uiso   1.00
C129   C     0.43760   1.03977   0.35111   0.00000  Uiso   1.00
C130   C     0.16632   0.84105   0.65146   0.00000  Uiso   1.00
O131   O     0.37578   0.84412   0.26367   0.00000  Uiso   1.00
C132   C     0.59299   0.83128   0.51673   0.00000  Uiso   1.00
C133   C     0.44219   0.78517   0.36542   0.00000  Uiso   1.00
O134   O     0.53105   0.97157   0.31444   0.00000  Uiso   1.00
C135   C     0.51237   0.84942   0.20632   0.00000  Uiso   1.00
C136   C     0.11138   0.30518   0.91743   0.00000  Uiso   1.00
O137   O     0.26218   0.40557   0.80174   0.00000  Uiso   1.00
C138   C     0.30569   0.39183   0.94469   0.00000  Uiso   1.00
C139   C     0.20267   0.23557   0.84590   0.00000  Uiso   1.00
C140   C     0.73504   0.03737   0.27008   0.00000  Uiso   1.00
O141   O     0.89445   0.05963   0.23065   0.00000  Uiso   1.00
C142   C     0.73521   0.90352   0.18168   0.00000  Uiso   1.00
O143   O     0.97763   0.20770   0.29628   0.00000  Uiso   1.00
C144   C     0.84526   0.11543   0.41770   0.00000  Uiso   1.00
C145   C     1.05427   0.25962   0.42313   0.00000  Uiso   1.00
C146   C     0.65691   0.13950   0.83475   0.00000  Uiso   1.00
C147   C     0.74626   0.18034   0.97057   0.00000  Uiso   1.00
O148   O     0.62722   0.22046   0.94433   0.00000  Uiso   1.00
C149   C     0.83741   0.28118   0.19094   0.00000  Uiso   1.00
C150   C     0.96815   0.36515   0.05308   0.00000  Uiso   1.00
O151   O     1.00207   0.46674   0.17671   0.00000  Uiso   1.00
O152   O     0.67638   0.37087   0.17411   0.00000  Uiso   1.00
O153   O     0.65350   0.42011   0.29690   0.00000  Uiso   1.00
O154   O     0.96620   0.53449   0.99568   0.00000  Uiso   1.00
O155   O     0.86888   0.42740   0.10590   0.00000  Uiso   1.00
C156   C     0.80177   0.26705   0.48459   0.00000  Uiso   1.00
O157   O     0.94401   0.30419   0.37541   0.00000  Uiso   1.00
O158   O     0.97925   0.42829   0.46285   0.00000  Uiso   1.00
O159   O     0.96892   0.53717   0.27657   0.00000  Uiso   1.00
O160   O     0.79190   0.42408   0.27249   0.00000  Uiso   1.00
O161   O     0.87587   0.38839   0.35853   0.00000  Uiso   1.00
O162   O     0.78057   0.32092   0.85768   0.00000  Uiso   1.00
C163   C     0.92148   0.31719   0.80436   0.00000  Uiso   1.00
O164   O     0.95782   0.45742   0.88632   0.00000  Uiso   1.00
C165   C     0.64758   0.49110   0.67023   0.00000  Uiso   1.00
C166   C     0.75034   0.52081   0.80080   0.00000  Uiso   1.00
C167   C     0.78565   0.44416   0.98544   0.00000  Uiso   1.00
C168   C     0.63492   0.58396   0.80461   0.00000  Uiso   1.00
O169   O     0.96490   0.46524   0.59664   0.00000  Uiso   1.00
C170   C     0.78334   0.38803   0.63197   0.00000  Uiso   1.00
O171   O     0.90369   0.44613   0.74531   0.00000  Uiso   1.00
O172   O     0.78121   0.53792   0.20346   0.00000  Uiso   1.00
O173   O     0.88770   0.57590   0.08627   0.00000  Uiso   1.00
O174   O     0.94037   0.68275   0.18997   0.00000  Uiso   1.00
O175   O     0.88065   0.81533   1.03501   0.00000  Uiso   1.00
O176   O     0.81695   0.66301   0.11123   0.00000  Uiso   1.00
C177   C     0.69048   0.68243   0.05351   0.00000  Uiso   1.00
C178   C     0.81442   1.09297   0.11348   0.00000  Uiso   1.00
C179   C     0.80579   0.64913   0.96005   0.00000  Uiso   1.00
C180   C     0.65097   0.69855   0.42741   0.00000  Uiso   1.00
C181   C     0.87421   0.53718   0.39208   0.00000  Uiso   1.00
C182   C     0.74412   0.66594   0.53492   0.00000  Uiso   1.00
C183   C     0.82292   0.86363   0.48936   0.00000  Uiso   1.00
O184   O     0.54009   0.81213   0.66843   0.00000  Uiso   1.00
C185   C     0.56913   0.97966   0.66231   0.00000  Uiso   1.00
C186   C     0.54152   0.87519   0.80725   0.00000  Uiso   1.00
C187   C     0.71614   0.96650   0.70507   0.00000  Uiso   1.00
O188   O     0.93177   0.76919   0.29323   0.00000  Uiso   1.00
C189   C     0.76185   0.71297   0.24876   0.00000  Uiso   1.00
O190   O     0.81920   0.74611   0.39305   0.00000  Uiso   1.00
C191   C     0.88960   0.89571   0.29678   0.00000  Uiso   1.00
O192   O     0.79475   0.67156   0.71391   0.00000  Uiso   1.00
C193   C     0.93535   0.58389   0.64063   0.00000  Uiso   1.00
C194   C     0.94740   0.82724   0.63402   0.00000  Uiso   1.00
C195   C     0.84582   0.84160   0.76254   0.00000  Uiso   1.00
C196   C     0.95852   0.76742   0.78578   0.00000  Uiso   1.00
C197   C     0.99869   0.95522   0.92452   0.00000  Uiso   1.00
H198   H     0.02195   0.23348   0.13303   0.00000  Uiso   1.00
H199   H     0.07002   0.17621   0.12229   0.00000  Uiso   1.00
H200   H     0.13168   0.28746   0.17116   0.00000  Uiso   1.00
H201   H     0.17012  -0.02968  -0.13508   0.00000  Uiso   1.00
H202   H     0.15406  -0.00180  -0.23131   0.00000  Uiso   1.00
H203   H     0.17220   0.06435  -0.15955   0.00000  Uiso   1.00
H204   H     0.39387   0.26316  -0.25209   0.00000  Uiso   1.00
H205   H     0.29688   0.18140  -0.29631   0.00000  Uiso   1.00
H206   H     0.40924   0.20188  -0.31507   0.00000  Uiso   1.00
H207   H     0.38006   0.06042   0.71178   0.00000  Uiso   1.00
H208   H     0.29601  -0.03556   0.77782   0.00000  Uiso   1.00
H209   H     0.40826   0.05128   0.80257   0.00000  Uiso   1.00
H210   H     0.05543   0.85278   0.48008   0.00000  Uiso   1.00
H211   H    -0.01626   0.83766   0.41568   0.00000  Uiso   1.00
H212   H     0.02353   0.92019   0.48927   0.00000  Uiso   1.00
H213   H     0.19588   0.21509   0.36336   0.00000  Uiso   1.00
H214   H     0.23593   0.27093   0.27689   0.00000  Uiso   1.00
H215   H     0.28022   0.21517   0.30920   0.00000  Uiso   1.00
H216   H     0.14744   0.49998   0.08134   0.00000  Uiso   1.00
H217   H     0.26306   0.56306   0.05073   0.00000  Uiso   1.00
H218   H     0.18109   0.48223  -0.00565   0.00000  Uiso   1.00
H219   H     0.35678   0.72445   0.98000   0.00000  Uiso   1.00
H220   H     0.32374   0.75263   0.89428   0.00000  Uiso   1.00
H221   H     0.31151   0.65122   0.89508   0.00000  Uiso   1.00
H222   H     0.24907   0.56404   0.38448   0.00000  Uiso   1.00
H223   H     0.21101   0.45838   0.35774   0.00000  Uiso   1.00
H224   H     0.13137   0.46531   0.40223   0.00000  Uiso   1.00
H225   H     0.14540   0.37925   0.25997   0.00000  Uiso   1.00
H226   H     0.15961   0.42635   0.17331   0.00000  Uiso   1.00
H227   H     0.06046   0.38399   0.23197   0.00000  Uiso   1.00
H228   H    -0.05328   0.17795   0.57143   0.00000  Uiso   1.00
H229   H    -0.01855   0.29310   0.54209   0.00000  Uiso   1.00
H230   H    -0.08992   0.23405   0.62621   0.00000  Uiso   1.00
H231   H     0.18860   0.35016   0.53260   0.00000  Uiso   1.00
H232   H     0.13913   0.24547   0.57658   0.00000  Uiso   1.00
H233   H     0.22070   0.33655   0.62224   0.00000  Uiso   1.00
H234   H     0.05853   0.19632   0.72261   0.00000  Uiso   1.00
H235   H    -0.02220   0.22128   0.74014   0.00000  Uiso   1.00
H236   H     0.09369   0.30834   0.75564   0.00000  Uiso   1.00
H237   H    -0.03688   0.85858   0.15378   0.00000  Uiso   1.00
H238   H     0.05924   0.86958   0.11575   0.00000  Uiso   1.00
H239   H     0.06241   0.93384   0.18875   0.00000  Uiso   1.00
H240   H     0.29738   0.98529   0.04900   0.00000  Uiso   1.00
H241   H     0.19074   0.96353   0.06588   0.00000  Uiso   1.00
H242   H     0.24395   1.00294  -0.02209   0.00000  Uiso   1.00
H243   H     0.30961   0.87195   0.95016   0.00000  Uiso   1.00
H244   H     0.25942   0.88783   0.87802   0.00000  Uiso   1.00
H245   H     0.21922   0.77579   0.91306   0.00000  Uiso   1.00
H246   H     0.29059   0.62041   0.15055   0.00000  Uiso   1.00
H247   H     0.34991   0.61136   0.21241   0.00000  Uiso   1.00
H248   H     0.33123   0.68995   0.22794   0.00000  Uiso   1.00
H249   H     0.23380   0.67550   0.37801   0.00000  Uiso   1.00
H250   H     0.25550   0.68568   0.47554   0.00000  Uiso   1.00
H251   H     0.28889   0.78303   0.40244   0.00000  Uiso   1.00
H252   H     0.07341   0.70933   0.86140   0.00000  Uiso   1.00
H253   H    -0.04987   0.61789   0.89088   0.00000  Uiso   1.00
H254   H    -0.00435   0.61610   0.80571   0.00000  Uiso   1.00
H255   H     0.15146   0.44997   0.78266   0.00000  Uiso   1.00
H256   H     0.10161   0.48428   0.83104   0.00000  Uiso   1.00
H257   H     0.21184   0.51978   0.85300   0.00000  Uiso   1.00
H258   H     0.18409   0.67586   0.81715   0.00000  Uiso   1.00
H259   H     0.09947   0.62296   0.74674   0.00000  Uiso   1.00
H260   H     0.20635   0.72868   0.72641   0.00000  Uiso   1.00
H261   H     0.37640   0.67684   0.75857   0.00000  Uiso   1.00
H262   H     0.34685   0.74927   0.75645   0.00000  Uiso   1.00
H263   H     0.36482   0.71653   0.67077   0.00000  Uiso   1.00
H264   H     0.01184   1.00389   1.09813   0.00000  Uiso   1.00
H265   H    -0.09341   0.99516   1.10418   0.00000  Uiso   1.00
H266   H     0.00077   1.07273   1.03335   0.00000  Uiso   1.00
H267   H     0.06964   0.81557   0.91629   0.00000  Uiso   1.00
H268   H     0.03404   0.82504   1.00309   0.00000  Uiso   1.00
H269   H     0.01617   0.72260   0.98225   0.00000  Uiso   1.00
H270   H    -0.15062   0.97717   0.93565   0.00000  Uiso   1.00
H271   H    -0.22996   0.88981   1.00893   0.00000  Uiso   1.00
H272   H    -0.21563   0.86030   0.92020   0.00000  Uiso   1.00
H273   H     0.63549   0.10833   0.09619   0.00000  Uiso   1.00
H274   H     0.59170   0.04082   0.18743   0.00000  Uiso   1.00
H275   H     0.59596   0.13027   0.18260   0.00000  Uiso   1.00
H276   H     0.53574   0.94302   0.03612   0.00000  Uiso   1.00
H277   H     0.44252   0.91425  -0.00785   0.00000  Uiso   1.00
H278   H     0.42561   0.86084   0.08606   0.00000  Uiso   1.00
H279   H     0.15855   0.05644   0.03270   0.00000  Uiso   1.00
H280   H     0.27550   0.16400   0.00293   0.00000  Uiso   1.00
H281   H     0.18383   0.16732   0.02255   0.00000  Uiso   1.00
H282   H     0.36876   0.15268   0.13449   0.00000  Uiso   1.00
H283   H     0.26578   0.04405   0.15266   0.00000  Uiso   1.00
H284   H     0.30842   0.11615   0.22850   0.00000  Uiso   1.00
H285   H     0.64747   0.18979   0.28977   0.00000  Uiso   1.00
H286   H     0.70216   0.16064   0.34176   0.00000  Uiso   1.00
H287   H     0.64691   0.19974   0.38265   0.00000  Uiso   1.00
H288   H     0.47691  -0.05991   0.47048   0.00000  Uiso   1.00
H289   H     0.51878   0.05461   0.49783   0.00000  Uiso   1.00
H290   H     0.59660   0.03274   0.46699   0.00000  Uiso   1.00
H291   H     0.15001   0.02987   0.59684   0.00000  Uiso   1.00
H292   H     0.25749   0.06458   0.62178   0.00000  Uiso   1.00
H293   H     0.19436  -0.02468   0.55779   0.00000  Uiso   1.00
H294   H     0.24340   0.20767   0.55562   0.00000  Uiso   1.00
H295   H     0.15627   0.15462   0.48744   0.00000  Uiso   1.00
H296   H     0.27125   0.24466   0.45836   0.00000  Uiso   1.00
H297   H     0.62038   0.32971   0.83907   0.00000  Uiso   1.00
H298   H     0.53442   0.29352   0.76599   0.00000  Uiso   1.00
H299   H     0.55262   0.22068   0.81293   0.00000  Uiso   1.00
H300   H     0.52644   0.39254   0.92607   0.00000  Uiso   1.00
H301   H     0.41441   0.31816   0.96786   0.00000  Uiso   1.00
H302   H     0.43090   0.35551   0.87599   0.00000  Uiso   1.00
H303   H     0.27767   0.30717   0.14862   0.00000  Uiso   1.00
H304   H     0.34594   0.30753   0.08371   0.00000  Uiso   1.00
H305   H     0.35744   0.29235   0.17755   0.00000  Uiso   1.00
H306   H     0.45603   0.14881   0.20188   0.00000  Uiso   1.00
H307   H     0.45894   0.23200   0.24871   0.00000  Uiso   1.00
H308   H     0.53549   0.20929   0.26780   0.00000  Uiso   1.00
H309   H     0.59532   0.40733   0.05444   0.00000  Uiso   1.00
H310   H     0.55380   0.41162   0.14600   0.00000  Uiso   1.00
H311   H     0.47335   0.32583   0.09253   0.00000  Uiso   1.00
H312   H     0.55928   0.20435   0.48711   0.00000  Uiso   1.00
H313   H     0.48785   0.16042   0.57248   0.00000  Uiso   1.00
H314   H     0.58999   0.28507   0.55330   0.00000  Uiso   1.00
H315   H     0.51991   0.39583   0.55517   0.00000  Uiso   1.00
H316   H     0.40371   0.29705   0.58743   0.00000  Uiso   1.00
H317   H     0.42603   0.35402   0.49759   0.00000  Uiso   1.00
H318   H     0.45825   0.52684   0.54354   0.00000  Uiso   1.00
H319   H     0.41936   0.56220   0.46982   0.00000  Uiso   1.00
H320   H     0.34187   0.44978   0.51299   0.00000  Uiso   1.00
H321   H     0.46525   0.36342   0.28078   0.00000  Uiso   1.00
H322   H     0.55870   0.48799   0.27284   0.00000  Uiso   1.00
H323   H     0.47068   0.43801   0.34914   0.00000  Uiso   1.00
H324   H     0.38337   0.39667   0.66389   0.00000  Uiso   1.00
H325   H     0.39249   0.37593   0.76419   0.00000  Uiso   1.00
H326   H     0.48291   0.48658   0.71427   0.00000  Uiso   1.00
H327   H     0.49664   0.63180   0.77611   0.00000  Uiso   1.00
H328   H     0.44958   0.55230   0.85666   0.00000  Uiso   1.00
H329   H     0.39886   0.60364   0.82843   0.00000  Uiso   1.00
H330   H     0.67175   0.47274   0.46989   0.00000  Uiso   1.00
H331   H     0.61277   0.51515   0.44689   0.00000  Uiso   1.00
H332   H     0.70867   0.55518   0.38791   0.00000  Uiso   1.00
H333   H     0.62580   0.74572   0.69106   0.00000  Uiso   1.00
H334   H     0.64977   0.72787   0.59240   0.00000  Uiso   1.00
H335   H     0.55182   0.63641   0.64599   0.00000  Uiso   1.00
H336   H     0.35592   0.83083   0.54278   0.00000  Uiso   1.00
H337   H     0.25889   0.73167   0.60602   0.00000  Uiso   1.00
H338   H     0.34123   0.84854   0.64167   0.00000  Uiso   1.00
H339   H     0.28300   0.96020   0.46979   0.00000  Uiso   1.00
H340   H     0.36655   0.95817   0.49446   0.00000  Uiso   1.00
H341   H     0.33476   1.00108   0.55894   0.00000  Uiso   1.00
H342   H     0.37283   0.97102   0.36699   0.00000  Uiso   1.00
H343   H     0.44067   1.05856   0.29581   0.00000  Uiso   1.00
H344   H     0.43974   1.08742   0.38489   0.00000  Uiso   1.00
H345   H     0.21394   0.90513   0.67745   0.00000  Uiso   1.00
H346   H     0.12748   0.77520   0.69252   0.00000  Uiso   1.00
H347   H     0.11308   0.83574   0.62487   0.00000  Uiso   1.00
H348   H     0.57008   0.78179   0.47506   0.00000  Uiso   1.00
H349   H     0.66911   0.88593   0.50452   0.00000  Uiso   1.00
H350   H     0.56103   0.86108   0.50791   0.00000  Uiso   1.00
H351   H     0.50736   0.79573   0.37791   0.00000  Uiso   1.00
H352   H     0.39607   0.71640   0.34912   0.00000  Uiso   1.00
H353   H     0.41813   0.79495   0.41627   0.00000  Uiso   1.00
H354   H     0.45870   0.79204   0.17635   0.00000  Uiso   1.00
H355   H     0.55191   0.82863   0.23005   0.00000  Uiso   1.00
H356   H     0.56060   0.91193   0.17382   0.00000  Uiso   1.00
H357   H     0.05718   0.24889   0.88137   0.00000  Uiso   1.00
H358   H     0.10379   0.35675   0.91818   0.00000  Uiso   1.00
H359   H     0.09379   0.26982   0.97311   0.00000  Uiso   1.00
H360   H     0.29973   0.44416   0.97018   0.00000  Uiso   1.00
H361   H     0.37902   0.42422   0.92579   0.00000  Uiso   1.00
H362   H     0.28108   0.33655   0.99107   0.00000  Uiso   1.00
H363   H     0.26254   0.24437   0.82440   0.00000  Uiso   1.00
H364   H     0.16143   0.21574   0.80054   0.00000  Uiso   1.00
H365   H     0.17224   0.17999   0.89403   0.00000  Uiso   1.00
H366   H     0.76659   0.11160   0.27151   0.00000  Uiso   1.00
H367   H     0.72584   0.00136   0.32646   0.00000  Uiso   1.00
H368   H     0.67092   0.00660   0.24606   0.00000  Uiso   1.00
H369   H     0.78366   0.88526   0.17663   0.00000  Uiso   1.00
H370   H     0.70237   0.88778   0.13034   0.00000  Uiso   1.00
H371   H     0.68614   0.86440   0.22997   0.00000  Uiso   1.00
H372   H     0.83413   0.05476   0.39638   0.00000  Uiso   1.00
H373   H     0.78155   0.10993   0.41229   0.00000  Uiso   1.00
H374   H     0.85028   0.10670   0.47800   0.00000  Uiso   1.00
H375   H     1.10583   0.27622   0.37774   0.00000  Uiso   1.00
H376   H     1.03838   0.20277   0.46437   0.00000  Uiso   1.00
H377   H     1.09123   0.32734   0.44331   0.00000  Uiso   1.00
H378   H     0.58582   0.09626   0.84572   0.00000  Uiso   1.00
H379   H     0.67234   0.09024   0.84648   0.00000  Uiso   1.00
H380   H     0.67541   0.17104   0.77342   0.00000  Uiso   1.00
H381   H     0.80366   0.19019   0.94275   0.00000  Uiso   1.00
H382   H     0.69669   0.10315   0.98757   0.00000  Uiso   1.00
H383   H     0.76654   0.21976   1.02087   0.00000  Uiso   1.00
H384   H     0.87492   0.25688   0.20778   0.00000  Uiso   1.00
H385   H     0.78138   0.23354   0.15895   0.00000  Uiso   1.00
H386   H     0.80547   0.28998   0.23845   0.00000  Uiso   1.00
H387   H     1.02109   0.42607   0.01012   0.00000  Uiso   1.00
H388   H     0.90767   0.31454   0.02499   0.00000  Uiso   1.00
H389   H     0.99780   0.33430   0.07325   0.00000  Uiso   1.00
H390   H     0.76961   0.29721   0.50490   0.00000  Uiso   1.00
H391   H     0.82086   0.25188   0.53635   0.00000  Uiso   1.00
H392   H     0.75451   0.20782   0.45696   0.00000  Uiso   1.00
H393   H     0.95361   0.31235   0.85351   0.00000  Uiso   1.00
H394   H     0.96567   0.34725   0.75181   0.00000  Uiso   1.00
H395   H     0.85698   0.24791   0.79820   0.00000  Uiso   1.00
H396   H     0.69150   0.50194   0.61782   0.00000  Uiso   1.00
H397   H     0.60208   0.50543   0.65134   0.00000  Uiso   1.00
H398   H     0.60663   0.41549   0.68429   0.00000  Uiso   1.00
H399   H     0.69791   0.46937   0.84066   0.00000  Uiso   1.00
H400   H     0.80393   0.57756   0.83325   0.00000  Uiso   1.00
H401   H     0.76978   0.48836   0.77150   0.00000  Uiso   1.00
H402   H     0.76268   0.37758   0.98556   0.00000  Uiso   1.00
H403   H     0.81146   0.48937   0.93365   0.00000  Uiso   1.00
H404   H     0.73439   0.44828   1.01821   0.00000  Uiso   1.00
H405   H     0.62493   0.63064   0.77460   0.00000  Uiso   1.00
H406   H     0.66966   0.61339   0.85546   0.00000  Uiso   1.00
H407   H     0.57473   0.51372   0.82118   0.00000  Uiso   1.00
H408   H     0.74285   0.39642   0.67440   0.00000  Uiso   1.00
H409   H     0.75218   0.31424   0.63841   0.00000  Uiso   1.00
H410   H     0.77676   0.41179   0.57757   0.00000  Uiso   1.00
H411   H     0.65658   0.65316   0.10786   0.00000  Uiso   1.00
H412   H     0.64362   0.64475   0.00984   0.00000  Uiso   1.00
H413   H     0.70209   0.74643   0.04591   0.00000  Uiso   1.00
H414   H     0.86926   1.16257   0.11854   0.00000  Uiso   1.00
H415   H     0.74931   1.08119   0.11152   0.00000  Uiso   1.00
H416   H     0.83522   1.07098   0.06479   0.00000  Uiso   1.00
H417   H     0.74499   0.58095   0.96885   0.00000  Uiso   1.00
H418   H     0.86850   0.65486   0.95407   0.00000  Uiso   1.00
H419   H     0.80052   0.67571   0.91078   0.00000  Uiso   1.00
H420   H     0.63101   0.64638   0.38866   0.00000  Uiso   1.00
H421   H     0.65982   0.75661   0.39622   0.00000  Uiso   1.00
H422   H     0.59479   0.66834   0.47295   0.00000  Uiso   1.00
H423   H     0.90465   0.53623   0.43901   0.00000  Uiso   1.00
H424   H     0.80386   0.51042   0.41089   0.00000  Uiso   1.00
H425   H     0.90843   0.60763   0.36753   0.00000  Uiso   1.00
H426   H     0.79886   0.66373   0.53280   0.00000  Uiso   1.00
H427   H     0.68413   0.59879   0.53667   0.00000  Uiso   1.00
H428   H     0.74690   0.69076   0.59297   0.00000  Uiso   1.00
H429   H     0.80665   0.86211   0.54904   0.00000  Uiso   1.00
H430   H     0.80880   0.90133   0.45103   0.00000  Uiso   1.00
H431   H     0.89380   0.89160   0.48375   0.00000  Uiso   1.00
H432   H     0.56410   0.97558   0.60133   0.00000  Uiso   1.00
H433   H     0.62359   1.05454   0.67462   0.00000  Uiso   1.00
H434   H     0.50302   0.95440   0.68431   0.00000  Uiso   1.00
H435   H     0.51554   0.80281   0.82811   0.00000  Uiso   1.00
H436   H     0.47895   0.86477   0.81452   0.00000  Uiso   1.00
H437   H     0.59119   0.91991   0.84945   0.00000  Uiso   1.00
H438   H     0.74082   0.98410   0.64439   0.00000  Uiso   1.00
H439   H     0.73341   0.92627   0.72560   0.00000  Uiso   1.00
H440   H     0.74135   1.03075   0.73517   0.00000  Uiso   1.00
H441   H     0.73086   0.63952   0.25436   0.00000  Uiso   1.00
H442   H     0.78157   0.73552   0.18835   0.00000  Uiso   1.00
H443   H     0.70741   0.71894   0.26364   0.00000  Uiso   1.00
H444   H     0.93817   0.93882   0.33595   0.00000  Uiso   1.00
H445   H     0.83009   0.89431   0.30572   0.00000  Uiso   1.00
H446   H     0.92258   0.92971   0.23965   0.00000  Uiso   1.00
H447   H     1.00190   0.63775   0.66446   0.00000  Uiso   1.00
H448   H     0.88394   0.58241   0.67467   0.00000  Uiso   1.00
H449   H     0.94029   0.60110   0.58186   0.00000  Uiso   1.00
H450   H     0.99622   0.89753   0.63856   0.00000  Uiso   1.00
H451   H     0.89777   0.81162   0.59169   0.00000  Uiso   1.00
H452   H     0.98169   0.79665   0.61743   0.00000  Uiso   1.00
H453   H     0.82223   0.85349   0.70991   0.00000  Uiso   1.00
H454   H     0.90331   0.90530   0.78048   0.00000  Uiso   1.00
H455   H     0.78733   0.79973   0.80619   0.00000  Uiso   1.00
H456   H     1.01431   0.83843   0.79381   0.00000  Uiso   1.00
H457   H     0.97813   0.73152   0.75529   0.00000  Uiso   1.00
H458   H     0.92770   0.73444   0.84032   0.00000  Uiso   1.00
H459   H     1.02268   1.02540   0.90658   0.00000  Uiso   1.00
H460   H     0.97047   0.91684   0.87735   0.00000  Uiso   1.00
H461   H     1.05538   0.96004   0.94647   0.00000  Uiso   1.00
loop_
_geom_bond_atom_site_label_1
_geom_bond_atom_site_label_2
_geom_bond_distance
_geom_bond_site_symmetry_2
_ccdc_geom_bond_type
Si1    C52     1.857   .     S
Si1    O57     1.644   .     S
Si1    O141    1.585   1_455 S
Si1    O143    1.636   1_455 S
Si2    C53     1.947   .     S
Si2    C54     1.834   .     S
Si2    C55     1.868   1_554 S
Si2    O105    1.602   1_554 S
Si3    O58     1.631   .     S
Si3    O99     1.577   .     S
Si3    C56     1.852   1_545 S
Si3    O82     1.633   1_545 S
Si4    O57     1.591   .     S
Si4    O58     1.601   .     S
Si4    C59     1.864   .     S
Si4    O95     1.575   .     S
Si5    O62     1.586   .     S
Si5    O71     1.608   .     S
Si5    O151    1.548   1_455 S
Si5    O159    1.573   1_455 S
Si6    C60     1.802   .     S
Si6    O72     1.589   .     S
Si6    C61     1.874   1_554 S
Si6    O68     1.599   1_554 S
Si7    O69     1.600   .     S
Si7    O77     1.659   .     S
Si7    O158    1.590   1_455 S
Si7    O169    1.570   1_455 S
Si8    O62     1.571   .     S
Si8    C63     1.873   .     S
Si8    C64     1.885   .     S
Si8    C78     1.917   .     S
Si9    C65     1.886   .     S
Si9    C66     1.836   .     S
Si9    C67     1.844   .     S
Si9    O70     1.576   .     S
Si10   O68     1.588   .     S
Si10   C83     1.850   .     S
Si10   O154    1.545   1_455 S
Si10   O164    1.596   1_455 S
Si11   O69     1.564   .     S
Si11   O70     1.592   .     S
Si11   O85     1.572   .     S
Si11   O114    1.565   .     S
Si12   O71     1.562   .     S
Si12   O72     1.642   .     S
Si12   O74     1.587   .     S
Si12   O120    1.645   .     S
Si13   C73     1.848   .     S
Si13   O80     1.547   .     S
Si13   O174    1.599   1_455 S
Si13   O188    1.556   1_455 S
Si14   O74     1.538   .     S
Si14   C75     1.847   .     S
Si14   C76     1.851   1_554 S
Si14   C89     1.869   1_554 S
Si15   O77     1.652   .     S
Si15   C79     1.916   .     S
Si15   O81     1.644   .     S
Si15   O126    1.641   .     S
Si16   O80     1.591   .     S
Si16   O81     1.654   .     S
Si16   O82     1.619   .     S
Si16   O122    1.629   .     S
Si17   C84     1.864   .     S
Si17   O85     1.542   .     S
Si17   C86     1.790   .     S
Si17   C87     1.899   .     S
Si18   C88     1.901   .     S
Si18   C90     1.872   .     S
Si18   O175    1.605   1_455 S
Si18   C197    1.855   1_455 S
Si19   C91     1.794   .     S
Si19   O96     1.623   .     S
Si19   C92     1.954   1_545 S
Si19   O121    1.651   1_545 S
Si20   C93     1.862   .     S
Si20   C94     1.878   .     S
Si20   O95     1.561   .     S
Si20   C106    1.863   .     S
Si21   O96     1.638   .     S
Si21   O108    1.585   .     S
Si21   O103    1.627   1_554 S
Si21   O148    1.616   1_554 S
Si22   C97     1.855   .     S
Si22   C98     1.785   .     S
Si22   C129    1.840   1_545 S
Si22   O134    1.604   1_545 S
Si23   O99     1.569   .     S
Si23   C100    1.882   .     S
Si23   C101    1.876   .     S
Si23   O110    1.615   .     S
Si24   C102    1.872   .     S
Si24   O103    1.621   .     S
Si24   C104    1.915   .     S
Si24   O105    1.609   .     S
Si25   C107    1.893   .     S
Si25   O108    1.641   .     S
Si25   C109    1.868   .     S
Si25   O152    1.561   .     S
Si26   O110    1.605   .     S
Si26   C111    1.890   .     S
Si26   C112    1.905   .     S
Si26   O116    1.608   .     S
Si27   C113    1.945   .     S
Si27   O114    1.643   .     S
Si27   O117    1.558   .     S
Si27   O123    1.616   .     S
Si28   C115    1.872   .     S
Si28   O116    1.596   .     S
Si28   C124    1.854   .     S
Si28   O153    1.628   .     S
Si29   O117    1.604   .     S
Si29   C118    1.876   .     S
Si29   C119    1.943   .     S
Si29   O137    1.616   .     S
Si30   O120    1.591   .     S
Si30   O121    1.613   .     S
Si30   O122    1.642   .     S
Si30   O131    1.596   .     S
Si31   O123    1.565   .     S
Si31   C125    1.886   .     S
Si31   C132    1.892   .     S
Si31   O184    1.595   .     S
Si32   O126    1.591   .     S
Si32   C127    1.824   .     S
Si32   C128    1.874   .     S
Si32   C130    1.896   .     S
Si33   O131    1.558   .     S
Si33   C133    1.842   .     S
Si33   O134    1.655   .     S
Si33   C135    1.862   .     S
Si34   C136    1.863   .     S
Si34   O137    1.602   .     S
Si34   C138    1.836   .     S
Si34   C139    1.865   .     S
Si35   C140    1.879   .     S
Si35   O141    1.573   .     S
Si35   C142    1.872   1_545 S
Si35   C178    1.881   1_545 S
Si36   O143    1.552   .     S
Si36   C144    1.874   .     S
Si36   C145    1.885   .     S
Si36   O157    1.629   .     S
Si37   C146    1.818   .     S
Si37   C147    1.870   .     S
Si37   O148    1.588   .     S
Si37   O162    1.632   .     S
Si38   C149    1.889   .     S
Si38   C150    1.876   .     S
Si38   O151    1.610   .     S
Si38   O155    1.571   .     S
Si39   O152    1.586   .     S
Si39   O153    1.565   .     S
Si39   O160    1.582   .     S
Si39   O172    1.549   .     S
Si40   O155    1.592   .     S
Si40   O173    1.571   .     S
Si40   O154    1.619   1_554 S
Si40   C167    1.804   1_554 S
Si41   C156    1.872   .     S
Si41   O157    1.605   .     S
Si41   O158    1.623   .     S
Si41   O161    1.561   .     S
Si42   O159    1.554   .     S
Si42   O160    1.616   .     S
Si42   O161    1.606   .     S
Si42   C181    1.865   .     S
Si43   O162    1.680   .     S
Si43   C163    1.890   .     S
Si43   O164    1.665   .     S
Si43   O171    1.610   .     S
Si44   C165    1.929   .     S
Si44   C166    1.828   .     S
Si44   C168    1.900   .     S
Si44   O192    1.562   .     S
Si45   O169    1.603   .     S
Si45   C170    1.847   .     S
Si45   O171    1.661   .     S
Si45   C193    1.860   .     S
Si46   O172    1.559   .     S
Si46   O173    1.591   .     S
Si46   O174    1.566   .     S
Si46   O176    1.632   .     S
Si47   O176    1.596   .     S
Si47   C177    1.891   .     S
Si47   O175    1.599   1_554 S
Si47   C179    1.889   1_554 S
Si48   C180    1.863   .     S
Si48   C182    1.809   .     S
Si48   C183    1.879   .     S
Si48   O190    1.592   .     S
Si49   O184    1.603   .     S
Si49   C185    1.867   .     S
Si49   C186    1.920   .     S
Si49   C187    1.846   .     S
Si50   O188    1.585   .     S
Si50   C189    1.864   .     S
Si50   O190    1.570   .     S
Si50   C191    1.849   .     S
Si51   O192    1.569   .     S
Si51   C194    1.899   .     S
Si51   C195    1.926   .     S
Si51   C196    1.895   .     S
C52    H198    1.063   .     S
C52    H199    1.156   .     S
C52    H200    1.170   .     S
C53    H201    1.136   .     S
C53    H202    1.125   .     S
C53    H203    1.050   .     S
C54    H204    1.093   .     S
C54    H205    1.120   .     S
C54    H206    1.113   .     S
C55    H207    1.089   .     S
C55    H208    1.136   .     S
C55    H209    1.072   .     S
C55    Si2     1.868   1_556 S
C56    H210    1.094   .     S
C56    H211    1.153   .     S
C56    H212    1.080   .     S
C56    Si3     1.852   1_565 S
C59    H213    1.091   .     S
C59    H214    1.109   .     S
C59    H215    1.071   .     S
C60    H216    1.062   .     S
C60    H217    1.073   .     S
C60    H218    1.142   .     S
C61    H219    1.124   .     S
C61    H220    1.143   .     S
C61    H221    1.119   .     S
C61    Si6     1.874   1_556 S
C63    H222    1.078   .     S
C63    H223    1.098   .     S
C63    H224    1.094   .     S
C64    H225    1.096   .     S
C64    H226    1.065   .     S
C64    H227    1.059   .     S
C65    H228    1.122   .     S
C65    H229    1.079   .     S
C65    H230    1.120   .     S
C66    H231    1.080   .     S
C66    H232    1.055   .     S
C66    H233    1.132   .     S
C67    H234    1.107   .     S
C67    H235    1.092   .     S
C67    H236    1.136   .     S
O68    Si6     1.599   1_556 S
C73    H237    1.069   .     S
C73    H238    1.087   .     S
C73    H239    1.115   .     S
C75    H240    1.127   .     S
C75    H241    1.099   .     S
C75    H242    1.071   .     S
C76    H243    1.082   .     S
C76    H244    1.101   .     S
C76    H245    1.106   .     S
C76    Si14    1.851   1_556 S
C78    H246    1.132   .     S
C78    H247    1.089   .     S
C78    H248    1.066   .     S
C79    H249    1.112   .     S
C79    H250    1.147   .     S
C79    H251    1.088   .     S
O82    Si3     1.633   1_565 S
C83    H252    1.159   .     S
C83    H253    1.095   .     S
C83    H254    1.165   .     S
C84    H255    1.113   .     S
C84    H256    1.041   .     S
C84    H257    1.131   .     S
C86    H258    1.087   .     S
C86    H259    1.090   .     S
C86    H260    1.072   .     S
C87    H261    1.096   .     S
C87    H262    1.072   .     S
C87    H263    1.117   .     S
C88    H264    1.094   .     S
C88    H265    1.136   .     S
C88    H266    1.138   .     S
C89    H267    1.058   .     S
C89    H268    1.093   .     S
C89    H269    1.076   .     S
C89    Si14    1.869   1_556 S
C90    H270    1.124   .     S
C90    H271    1.113   .     S
C90    H272    1.071   .     S
C91    H273    1.140   .     S
C91    H274    1.069   .     S
C91    H275    1.125   .     S
C92    H276    1.139   .     S
C92    H277    1.114   .     S
C92    H278    1.108   .     S
C92    Si19    1.954   1_565 S
C93    H279    1.146   .     S
C93    H280    1.103   .     S
C93    H281    1.060   .     S
C94    H282    1.149   .     S
C94    H283    1.084   .     S
C94    H284    1.144   .     S
C97    H285    1.029   .     S
C97    H286    1.103   .     S
C97    H287    1.081   .     S
C98    H288    1.137   .     S
C98    H289    1.134   .     S
C98    H290    1.077   .     S
C100   H291    1.124   .     S
C100   H292    1.101   .     S
C100   H293    1.096   .     S
C101   H294    1.122   .     S
C101   H295    1.126   .     S
C101   H296    1.046   .     S
C102   H297    1.106   .     S
C102   H298    1.173   .     S
C102   H299    1.050   .     S
O103   Si21    1.627   1_556 S
C104   H300    1.100   .     S
C104   H301    1.048   .     S
C104   H302    1.102   .     S
O105   Si2     1.602   1_556 S
C106   H303    1.073   .     S
C106   H304    1.070   .     S
C106   H305    1.074   .     S
C107   H306    1.096   .     S
C107   H307    1.104   .     S
C107   H308    1.096   .     S
C109   H309    1.151   .     S
C109   H310    1.146   .     S
C109   H311    1.088   .     S
C111   H312    1.104   .     S
C111   H313    1.132   .     S
C111   H314    1.169   .     S
C112   H315    1.157   .     S
C112   H316    1.090   .     S
C112   H317    1.111   .     S
C113   H318    1.134   .     S
C113   H319    1.108   .     S
C113   H320    1.124   .     S
C115   H321    1.123   .     S
C115   H322    1.038   .     S
C115   H323    1.175   .     S
C118   H324    1.216   .     S
C118   H325    1.102   .     S
C118   H326    1.082   .     S
C119   H327    1.109   .     S
C119   H328    1.085   .     S
C119   H329    1.089   .     S
O121   Si19    1.651   1_565 S
C124   H330    1.146   .     S
C124   H331    1.068   .     S
C124   H332    1.109   .     S
C125   H333    1.097   .     S
C125   H334    1.128   .     S
C125   H335    1.112   .     S
C127   H336    1.161   .     S
C127   H337    1.116   .     S
C127   H338    1.130   .     S
C128   H339    1.129   .     S
C128   H340    1.047   .     S
C128   H341    1.094   .     S
C129   H342    1.115   .     S
C129   H343    1.032   .     S
C129   H344    1.092   .     S
C129   Si22    1.840   1_565 S
C130   H345    1.116   .     S
C130   H346    1.172   .     S
C130   H347    1.079   .     S
C132   H348    1.108   .     S
C132   H349    1.142   .     S
C132   H350    1.054   .     S
C133   H351    1.150   .     S
C133   H352    1.094   .     S
C133   H353    1.084   .     S
O134   Si22    1.604   1_565 S
C135   H354    1.117   .     S
C135   H355    1.120   .     S
C135   H356    1.064   .     S
C136   H357    1.178   .     S
C136   H358    1.063   .     S
C136   H359    1.098   .     S
C138   H360    1.171   .     S
C138   H361    1.142   .     S
C138   H362    1.136   .     S
C139   H363    1.086   .     S
C139   H364    1.069   .     S
C139   H365    1.147   .     S
C140   H366    1.136   .     S
C140   H367    1.142   .     S
C140   H368    1.091   .     S
O141   Si1     1.585   1_655 S
C142   H369    1.156   .     S
C142   H370    1.088   .     S
C142   H371    1.095   .     S
C142   Si35    1.872   1_565 S
O143   Si1     1.636   1_655 S
C144   H372    1.120   .     S
C144   H373    1.146   .     S
C144   H374    1.113   .     S
C145   H375    1.121   .     S
C145   H376    1.139   .     S
C145   H377    1.105   .     S
C146   H378    1.058   .     S
C146   H379    1.140   .     S
C146   H380    1.165   .     S
C147   H381    1.076   .     S
C147   H382    1.159   .     S
C147   H383    1.130   .     S
O148   Si21    1.616   1_556 S
C149   H384    1.094   .     S
C149   H385    1.093   .     S
C149   H386    1.107   .     S
C150   H387    1.166   .     S
C150   H388    1.108   .     S
C150   H389    1.082   .     S
O151   Si5     1.548   1_655 S
O154   Si10    1.545   1_655 S
O154   Si40    1.619   1_556 S
C156   H390    1.117   .     S
C156   H391    1.102   .     S
C156   H392    1.077   .     S
O158   Si7     1.590   1_655 S
O159   Si5     1.573   1_655 S
C163   H393    1.126   .     S
C163   H394    1.107   .     S
C163   H395    1.127   .     S
O164   Si10    1.596   1_655 S
C165   H396    1.157   .     S
C165   H397    1.103   .     S
C165   H398    1.133   .     S
C166   H399    1.065   .     S
C166   H400    1.137   .     S
C166   H401    1.039   .     S
C167   H402    1.044   .     S
C167   H403    1.103   .     S
C167   H404    1.158   .     S
C167   Si40    1.804   1_556 S
C168   H405    1.123   .     S
C168   H406    1.113   .     S
C168   H407    1.103   .     S
O169   Si7     1.570   1_655 S
C170   H408    1.145   .     S
C170   H409    1.124   .     S
C170   H410    1.104   .     S
O174   Si13    1.599   1_655 S
O175   Si18    1.605   1_655 S
O175   Si47    1.599   1_556 S
C177   H411    1.070   .     S
C177   H412    1.119   .     S
C177   H413    1.083   .     S
C178   H414    1.073   .     S
C178   H415    1.106   .     S
C178   H416    1.145   .     S
C178   Si35    1.881   1_565 S
C179   H417    1.070   .     S
C179   H418    1.117   .     S
C179   H419    1.038   .     S
C179   Si47    1.889   1_556 S
C180   H420    1.112   .     S
C180   H421    1.115   .     S
C180   H422    1.127   .     S
C181   H423    1.049   .     S
C181   H424    1.119   .     S
C181   H425    1.113   .     S
C182   H426    1.055   .     S
C182   H427    1.056   .     S
C182   H428    1.163   .     S
C183   H429    1.107   .     S
C183   H430    1.118   .     S
C183   H431    1.091   .     S
C185   H432    1.115   .     S
C185   H433    1.168   .     S
C185   H434    1.072   .     S
C186   H435    1.162   .     S
C186   H436    1.070   .     S
C186   H437    1.151   .     S
C187   H438    1.127   .     S
C187   H439    1.047   .     S
C187   H440    1.170   .     S
O188   Si13    1.556   1_655 S
C189   H441    1.119   .     S
C189   H442    1.115   .     S
C189   H443    1.121   .     S
C191   H444    1.095   .     S
C191   H445    1.109   .     S
C191   H446    1.123   .     S
C193   H447    1.146   .     S
C193   H448    1.112   .     S
C193   H449    1.080   .     S
C194   H450    1.062   .     S
C194   H451    1.135   .     S
C194   H452    1.138   .     S
C195   H453    1.135   .     S
C195   H454    1.091   .     S
C195   H455    1.124   .     S
C196   H456    1.105   .     S
C196   H457    1.106   .     S
C196   H458    1.072   .     S
C197   H459    1.125   .     S
C197   H460    1.079   .     S
C197   H461    1.105   .     S
C197   Si18    1.855   1_655 S
