data_333-9-11-16-15-30-17
_audit_creation_date              2025-03-07
_audit_creation_method            'Materials Studio'
_symmetry_space_group_name_H-M    'P1'
_symmetry_Int_Tables_number       1
_symmetry_cell_setting            triclinic
loop_
_symmetry_equiv_pos_as_xyz
  x,y,z
_cell_length_a                    15.7210
_cell_length_b                    18.4360
_cell_length_c                    19.6568
_cell_angle_alpha                 93.9560
_cell_angle_beta                  85.5042
_cell_angle_gamma                 124.4405
loop_
_atom_site_label
_atom_site_type_symbol
_atom_site_fract_x
_atom_site_fract_y
_atom_site_fract_z
_atom_site_U_iso_or_equiv
_atom_site_adp_type
_atom_site_occupancy
Si1    Si    0.16422   0.13051   0.07666   0.00000  Uiso   1.00
Si2    Si    0.16982   0.23428  -0.04078   0.00000  Uiso   1.00
Si3    Si    0.21572  -0.05803   0.43692   0.00000  Uiso   1.00
Si4    Si    0.11231   0.46848   0.62008   0.00000  Uiso   1.00
Si5    Si   -0.02393   0.18107   0.88198   0.00000  Uiso   1.00
Si6    Si    0.13914   0.12448   0.53748   0.00000  Uiso   1.00
Si7    Si    0.16586   0.37393   0.05285   0.00000  Uiso   1.00
Si8    Si    0.02772   0.45406   0.24798   0.00000  Uiso   1.00
Si9    Si    0.15705   0.52256   0.00154   0.00000  Uiso   1.00
Si10   Si    0.15848   0.42212   0.33391   0.00000  Uiso   1.00
Si11   Si    0.01301   0.52297   0.89045   0.00000  Uiso   1.00
Si12   Si    0.14118   0.59943   0.14586   0.00000  Uiso   1.00
Si13   Si    0.04417   0.79059   0.51910   0.00000  Uiso   1.00
Si14   Si    0.20026   0.79576   0.34366   0.00000  Uiso   1.00
Si15   Si    0.14584   0.70532   0.81560   0.00000  Uiso   1.00
Si16   Si   -0.13380   0.86871   0.91602   0.00000  Uiso   1.00
Si17   Si    0.32468  -0.14398   0.10007   0.00000  Uiso   1.00
Si18   Si    0.63345   0.06142   0.50885   0.00000  Uiso   1.00
Si19   Si    0.32332   0.10316   0.53303   0.00000  Uiso   1.00
Si20   Si    0.53428   0.22455   0.17228   0.00000  Uiso   1.00
Si21   Si    0.48802   0.04550   0.74460   0.00000  Uiso   1.00
Si22   Si    0.31433   0.20044   0.87343   0.00000  Uiso   1.00
Si23   Si    0.47732   0.16520   0.64971   0.00000  Uiso   1.00
Si24   Si    0.36494   0.44753   0.34101   0.00000  Uiso   1.00
Si25   Si    0.51338   0.51897  -0.07026   0.00000  Uiso   1.00
Si26   Si    0.47799   0.30114   0.75772   0.00000  Uiso   1.00
Si27   Si    0.33143   0.53831   0.89641   0.00000  Uiso   1.00
Si28   Si    0.39633   0.38558   0.68108   0.00000  Uiso   1.00
Si29   Si    0.52041   0.55320   0.23421   0.00000  Uiso   1.00
Si30   Si    0.31637   0.76638   0.22298   0.00000  Uiso   1.00
Si31   Si    0.64444   0.92092   0.57969   0.00000  Uiso   1.00
Si32   Si    0.47212   0.78929   0.32357   0.00000  Uiso   1.00
Si33   Si    0.32605   0.90201   0.84293   0.00000  Uiso   1.00
Si34   Si    0.53375   0.90935   0.71028   0.00000  Uiso   1.00
Si35   Si    0.59160   0.12919   0.26402   0.00000  Uiso   1.00
Si36   Si    0.83738   0.14128   0.01100   0.00000  Uiso   1.00
Si37   Si    0.69109   0.24172   0.57023   0.00000  Uiso   1.00
Si38   Si    0.67037   0.19080   0.83006   0.00000  Uiso   1.00
Si39   Si    0.88885   0.31226   0.64767   0.00000  Uiso   1.00
Si40   Si    0.80892   0.50225  -0.05478   0.00000  Uiso   1.00
Si41   Si    0.83293   0.36285   0.45886   0.00000  Uiso   1.00
Si42   Si    0.68720   0.51583   0.51409   0.00000  Uiso   1.00
Si43   Si    0.88803   0.48872   0.34758   0.00000  Uiso   1.00
Si44   Si    0.86262   0.37677   0.78625   0.00000  Uiso   1.00
Si45   Si    0.63503   0.45276   0.84591   0.00000  Uiso   1.00
Si46   Si    0.83405   0.64448   0.04847   0.00000  Uiso   1.00
Si47   Si    0.76581   0.76863   0.04572   0.00000  Uiso   1.00
Si48   Si    0.88952   0.63884   0.43175   0.00000  Uiso   1.00
Si49   Si    0.82527   0.74625   0.37975   0.00000  Uiso   1.00
Si50   Si    0.58274   0.78880   1.05732   0.00000  Uiso   1.00
Si51   Si    0.94014   0.80764   0.65188   0.00000  Uiso   1.00
C52    C     0.29339   0.22231   0.10017   0.00000  Uiso   1.00
C53    C     0.07748   1.09293   0.15548   0.00000  Uiso   1.00
C54    C     0.17398   1.03900   0.04136   0.00000  Uiso   1.00
O55    O     0.12835   0.16408   0.01961   0.00000  Uiso   1.00
C56    C     0.19670  -0.00037   0.37260   0.00000  Uiso   1.00
C57    C     0.14843   0.56840   0.58002   0.00000  Uiso   1.00
C58    C     1.19516   0.42844   0.59138   0.00000  Uiso   1.00
O59    O     0.08028   0.19835   0.90634   0.00000  Uiso   1.00
C60    C    -0.00162   0.29080   0.87214   0.00000  Uiso   1.00
C61    C     0.94587   0.11652   0.79836   0.00000  Uiso   1.00
C62    C     0.13227   0.49428   0.71286   0.00000  Uiso   1.00
C63    C     0.02633   0.03407   0.49560   0.00000  Uiso   1.00
C64    C     0.09140   0.15024   0.62093   0.00000  Uiso   1.00
C65    C     0.19049   0.21207   0.47207   0.00000  Uiso   1.00
C66    C     0.10442   0.31375   0.13498   0.00000  Uiso   1.00
O67    O     0.19284   0.32669  -0.00698   0.00000  Uiso   1.00
C68    C     0.91759   0.33354   0.23206   0.00000  Uiso   1.00
O69    O     0.12151   0.42866   0.02889   0.00000  Uiso   1.00
O70    O     0.12013   0.45320   0.27452   0.00000  Uiso   1.00
C71    C     0.08411   0.29948   0.34006   0.00000  Uiso   1.00
C72    C     0.15419   0.48001   0.41453   0.00000  Uiso   1.00
O73    O     0.06239   0.50901   0.95640   0.00000  Uiso   1.00
O74    O     0.07430   0.50745   0.17874   0.00000  Uiso   1.00
O75    O     0.18151   0.58972   0.06782   0.00000  Uiso   1.00
C76    C     0.05469   0.63837   0.14288   0.00000  Uiso   1.00
C77    C     0.13073   0.77444   0.56639   0.00000  Uiso   1.00
O78    O     0.10939   0.88035   0.48047   0.00000  Uiso   1.00
C79    C     0.08093   0.77931   0.31426   0.00000  Uiso   1.00
C80    C     0.18645   0.70669   0.38967   0.00000  Uiso   1.00
O81    O     0.24640   0.88217   0.39426   0.00000  Uiso   1.00
O82    O     0.11118   0.61490   0.85555   0.00000  Uiso   1.00
C83    C     0.13987   0.68748   0.71998   0.00000  Uiso   1.00
C84    C     0.04201   0.71896   0.83723   0.00000  Uiso   1.00
C85    C    -0.03413   0.84982   0.88786   0.00000  Uiso   1.00
C86    C    -0.07114   0.97995   0.95842   0.00000  Uiso   1.00
C87    C     0.80345   0.86018   0.83930   0.00000  Uiso   1.00
C88    C     0.24149  -0.10941   0.14607   0.00000  Uiso   1.00
C89    C     0.26427   0.78454   0.02111   0.00000  Uiso   1.00
O90    O     0.29391   0.01345   0.49199   0.00000  Uiso   1.00
C91    C     0.41701   0.19561   0.47915   0.00000  Uiso   1.00
O92    O     0.22073   0.10018   0.54990   0.00000  Uiso   1.00
C93    C     0.64102   0.33953   0.17203   0.00000  Uiso   1.00
C94    C     0.50820   0.03777   0.47998   0.00000  Uiso   1.00
C95    C     0.48893   0.18909   0.08293   0.00000  Uiso   1.00
C96    C     0.42786   0.21263   0.23123   0.00000  Uiso   1.00
C97    C     0.20836   0.09636   0.82828   0.00000  Uiso   1.00
C98    C     0.40346   0.18605   0.91725   0.00000  Uiso   1.00
O99    O     0.26938   0.24570   0.92458   0.00000  Uiso   1.00
O100   O     0.37796   0.12172   0.60257   0.00000  Uiso   1.00
O101   O     0.47258   0.08162   0.67707   0.00000  Uiso   1.00
C102   C     0.28876   0.45422   0.08816   0.00000  Uiso   1.00
C103   C     0.34326   0.33933   0.31858   0.00000  Uiso   1.00
C104   C     0.37390   0.47471   0.43649   0.00000  Uiso   1.00
O105   O     0.27399   0.45570   0.31755   0.00000  Uiso   1.00
C106   C     0.52769   0.50830   0.02096   0.00000  Uiso   1.00
O107   O     0.38086   0.26575   0.81216   0.00000  Uiso   1.00
O108   O     0.48013   0.22261   0.71859   0.00000  Uiso   1.00
C109   C     0.24001   0.45317   0.83989   0.00000  Uiso   1.00
O110   O     0.40281   0.50632   0.91926   0.00000  Uiso   1.00
C111   C     0.41896   0.64259   0.84567   0.00000  Uiso   1.00
O112   O     0.26484   0.55813   0.95575   0.00000  Uiso   1.00
C113   C     0.38562   0.36191   0.58664   0.00000  Uiso   1.00
O114   O     0.46872   0.35826   0.70653   0.00000  Uiso   1.00
C115   C     0.26386   0.31435   0.72771   0.00000  Uiso   1.00
O116   O     0.47005   0.52219   0.30700   0.00000  Uiso   1.00
C117   C     0.61232   0.62741  -0.09634   0.00000  Uiso   1.00
C118   C     0.45277   0.59587   0.19610   0.00000  Uiso   1.00
C119   C     0.65911   0.64629   0.22734   0.00000  Uiso   1.00
C120   C     0.50850   0.45636   0.18479   0.00000  Uiso   1.00
O121   O     0.23441   0.66607   0.19739   0.00000  Uiso   1.00
O122   O     0.35644   0.82034   0.15302   0.00000  Uiso   1.00
O123   O     0.27189   0.80886   0.27495   0.00000  Uiso   1.00
C124   C     0.78068   0.97158   0.56179   0.00000  Uiso   1.00
O125   O     0.61048   0.97867   0.54542   0.00000  Uiso   1.00
C126   C     0.57625   0.81037   0.53907   0.00000  Uiso   1.00
O127   O     0.41374   0.77931   0.25644   0.00000  Uiso   1.00
C128   C     0.43468   0.68179   0.35841   0.00000  Uiso   1.00
C129   C     0.46536   0.86402   0.39077   0.00000  Uiso   1.00
C130   C     0.73342   1.08540   0.44019   0.00000  Uiso   1.00
C131   C     0.61274   0.84912   0.30371   0.00000  Uiso   1.00
O132   O     0.26228   0.79630   0.82632   0.00000  Uiso   1.00
C133   C     0.43235   0.93855   0.89940   0.00000  Uiso   1.00
O134   O     0.38393   0.97350   0.78127   0.00000  Uiso   1.00
C135   C     0.24163   0.93040   0.88942   0.00000  Uiso   1.00
O136   O     0.61662   0.91717   0.65862   0.00000  Uiso   1.00
C137   C     0.40881   0.83040   0.67023   0.00000  Uiso   1.00
O138   O     0.54627   0.99926   0.72326   0.00000  Uiso   1.00
C139   C     0.53480   0.86120   0.78655   0.00000  Uiso   1.00
C140   C     0.45226  -0.04020   0.07120   0.00000  Uiso   1.00
C141   C     0.46318   0.02929   0.28985   0.00000  Uiso   1.00
C142   C     0.62899   0.21036   0.33944   0.00000  Uiso   1.00
C143   C     0.68122   0.10001   0.23461   0.00000  Uiso   1.00
O144   O     0.57431   0.16925   0.19892   0.00000  Uiso   1.00
O145   O     0.88665   0.13329   0.93869   0.00000  Uiso   1.00
C146   C     0.87289   0.10578   0.08211   0.00000  Uiso   1.00
C147   C     0.86504   0.25306   0.02269   0.00000  Uiso   1.00
O148   O     0.68552   0.14976   0.55734   0.00000  Uiso   1.00
O149   O     0.58322   0.22368   0.60385   0.00000  Uiso   1.00
O150   O     0.56390   0.13568   0.78961   0.00000  Uiso   1.00
C151   C     0.73888   0.13594   0.81725   0.00000  Uiso   1.00
C152   C     0.69713   0.07113   1.00352   0.00000  Uiso   1.00
C153   C     0.62982   0.18832   0.91944   0.00000  Uiso   1.00
O154   O     0.99118   0.38718   0.61059   0.00000  Uiso   1.00
O155   O     0.78411   0.30078   0.62260   0.00000  Uiso   1.00
C156   C     0.89036   0.21173   0.63775   0.00000  Uiso   1.00
O157   O     0.92109   0.53462   0.91250   0.00000  Uiso   1.00
C158   C     0.75680   0.40559   0.00642   0.00000  Uiso   1.00
O159   O     0.73037   0.29588   0.50052   0.00000  Uiso   1.00
C160   C     0.91476   0.32411   0.43265   0.00000  Uiso   1.00
C161   C     0.91180   0.46256   0.51443   0.00000  Uiso   1.00
C162   C     0.61866   0.44519   0.43610   0.00000  Uiso   1.00
C163   C     0.68021   0.45044   0.58299   0.00000  Uiso   1.00
C164   C     0.64317   0.58443   0.55266   0.00000  Uiso   1.00
C165   C     0.45483   0.50102   0.70562   0.00000  Uiso   1.00
O166   O     0.98948   0.49334   0.30945   0.00000  Uiso   1.00
C167   C     0.81183   0.48624   0.27608   0.00000  Uiso   1.00
O168   O     0.82078   0.40347   0.39511   0.00000  Uiso   1.00
O169   O     0.75209   0.29627   0.81765   0.00000  Uiso   1.00
O170   O     0.90051   0.33563   0.72758   0.00000  Uiso   1.00
C171   C     0.84216   0.45333   0.74093   0.00000  Uiso   1.00
O172   O     0.95906   0.44035   0.83738   0.00000  Uiso   1.00
O173   O     0.57813   0.36472   0.79670   0.00000  Uiso   1.00
O174   O     0.72045   0.45673   0.89137   0.00000  Uiso   1.00
C175   C     0.69694   0.54020   0.78321   0.00000  Uiso   1.00
O176   O     0.54390   0.45642   0.88913   0.00000  Uiso   1.00
C177   C     0.81069   0.58649   0.12555   0.00000  Uiso   1.00
O178   O     0.80633   0.57993  -0.01689   0.00000  Uiso   1.00
C179   C     0.97276   0.73454   0.03841   0.00000  Uiso   1.00
O180   O     0.79189   0.79528   0.96769   0.00000  Uiso   1.00
O181   O     0.76296   0.68066   0.05250   0.00000  Uiso   1.00
C182   C     0.85665   0.86037   0.10186   0.00000  Uiso   1.00
O183   O     0.80591   0.58847   0.49501   0.00000  Uiso   1.00
O184   O     0.92196   0.57716   0.39481   0.00000  Uiso   1.00
O185   O     0.99304   0.71485   0.46258   0.00000  Uiso   1.00
C186   C     0.88263   0.80627   0.29548   0.00000  Uiso   1.00
C187   C     0.68160   0.68276   0.39042   0.00000  Uiso   1.00
O188   O     0.84977   0.67518   0.38118   0.00000  Uiso   1.00
C189   C     0.87197   0.82514   0.45479   0.00000  Uiso   1.00
C190   C     0.62028   0.84554   0.97430   0.00000  Uiso   1.00
O191   O     0.65453   0.75467   1.06977   0.00000  Uiso   1.00
C192   C     0.59267   0.86891   1.12520   0.00000  Uiso   1.00
C193   C     0.44737   0.69782   1.05663   0.00000  Uiso   1.00
O194   O     0.95986   0.79093   0.57595   0.00000  Uiso   1.00
C195   C     0.91086   0.71220   0.69896   0.00000  Uiso   1.00
C196   C     1.05844   0.91516   0.67579   0.00000  Uiso   1.00
C197   C     0.83097   0.81566   0.66203   0.00000  Uiso   1.00
H198   H     0.32842   0.26150   0.05281   0.00000  Uiso   1.00
H199   H     0.33122   0.19267   0.11460   0.00000  Uiso   1.00
H200   H     0.28883   0.26618   0.13944   0.00000  Uiso   1.00
H201   H    -0.00292   1.04347   0.14480   0.00000  Uiso   1.00
H202   H     0.07871   1.14630   0.18834   0.00000  Uiso   1.00
H203   H     0.10790   1.06816   0.18751   0.00000  Uiso   1.00
H204   H     0.10411   0.97758   0.05704   0.00000  Uiso   1.00
H205   H     0.23536   1.04527   0.06563   0.00000  Uiso   1.00
H206   H     0.18740   1.03685  -0.01397   0.00000  Uiso   1.00
H207   H     0.25514   0.01096   0.33087   0.00000  Uiso   1.00
H208   H     0.21677   0.06442   0.39240   0.00000  Uiso   1.00
H209   H     0.12256  -0.03877   0.35278   0.00000  Uiso   1.00
H210   H     0.22661   0.62289   0.59557   0.00000  Uiso   1.00
H211   H     0.08980   0.58337   0.60169   0.00000  Uiso   1.00
H212   H     0.14219   0.56275   0.52378   0.00000  Uiso   1.00
H213   H     1.26606   0.48192   0.56581   0.00000  Uiso   1.00
H214   H     1.15447   0.36546   0.55567   0.00000  Uiso   1.00
H215   H     1.21804   0.41179   0.63655   0.00000  Uiso   1.00
H216   H     0.02702   0.31293   0.82360   0.00000  Uiso   1.00
H217   H     0.04275   0.33221   0.91763   0.00000  Uiso   1.00
H218   H    -0.07474   0.28283   0.86926   0.00000  Uiso   1.00
H219   H     0.87216   0.05359   0.80746   0.00000  Uiso   1.00
H220   H     1.00212   0.10318   0.78169   0.00000  Uiso   1.00
H221   H     0.94033   0.15553   0.75688   0.00000  Uiso   1.00
H222   H     0.10808   0.43001   0.73450   0.00000  Uiso   1.00
H223   H     0.08095   0.51610   0.73553   0.00000  Uiso   1.00
H224   H     0.21254   0.54539   0.72840   0.00000  Uiso   1.00
H225   H    -0.01586  -0.01757   0.53458   0.00000  Uiso   1.00
H226   H     0.04488   0.01426   0.44936   0.00000  Uiso   1.00
H227   H    -0.02409   0.05748   0.48189   0.00000  Uiso   1.00
H228   H     0.11988   0.22075   0.63176   0.00000  Uiso   1.00
H229   H     0.10136   0.11816   0.66404   0.00000  Uiso   1.00
H230   H     0.00937   0.12279   0.61651   0.00000  Uiso   1.00
H231   H     0.14215   0.24113   0.48000   0.00000  Uiso   1.00
H232   H     0.17933   0.18496   0.41755   0.00000  Uiso   1.00
H233   H     0.27563   0.26108   0.48098   0.00000  Uiso   1.00
H234   H     0.14197   0.28043   0.14304   0.00000  Uiso   1.00
H235   H     0.02538   0.26567   0.12626   0.00000  Uiso   1.00
H236   H     0.10898   0.35512   0.17627   0.00000  Uiso   1.00
H237   H     0.91084   0.33120   0.17434   0.00000  Uiso   1.00
H238   H     0.83951   0.31683   0.25248   0.00000  Uiso   1.00
H239   H     0.92816   0.28009   0.24728   0.00000  Uiso   1.00
H240   H     0.10703   0.26947   0.29986   0.00000  Uiso   1.00
H241   H     0.00467   0.26885   0.32734   0.00000  Uiso   1.00
H242   H     0.08486   0.27758   0.39306   0.00000  Uiso   1.00
H243   H     0.10350   0.50245   0.40967   0.00000  Uiso   1.00
H244   H     0.22194   0.54160   0.42287   0.00000  Uiso   1.00
H245   H     0.12899   0.43253   0.45568   0.00000  Uiso   1.00
H246   H     0.09942   0.70884   0.13305   0.00000  Uiso   1.00
H247   H     0.01622   0.62705   0.19485   0.00000  Uiso   1.00
H248   H    -0.00804   0.59839   0.10608   0.00000  Uiso   1.00
H249   H     0.08740   0.70299   0.58522   0.00000  Uiso   1.00
H250   H     0.16840   0.83030   0.60385   0.00000  Uiso   1.00
H251   H     0.19482   0.78900   0.52830   0.00000  Uiso   1.00
H252   H     0.02779   0.71247   0.29814   0.00000  Uiso   1.00
H253   H     0.10016   0.82300   0.27542   0.00000  Uiso   1.00
H254   H     0.04488   0.79327   0.35733   0.00000  Uiso   1.00
H255   H     0.17273   0.65409   0.35135   0.00000  Uiso   1.00
H256   H     0.11917   0.67802   0.42384   0.00000  Uiso   1.00
H257   H     0.26164   0.72930   0.41417   0.00000  Uiso   1.00
H258   H     0.15584   0.74625   0.69995   0.00000  Uiso   1.00
H259   H     0.05807   0.63791   0.71482   0.00000  Uiso   1.00
H260   H     0.19380   0.66972   0.70224   0.00000  Uiso   1.00
H261   H     0.06256   0.78249   0.81083   0.00000  Uiso   1.00
H262   H     0.02908   0.72739   0.89161   0.00000  Uiso   1.00
H263   H    -0.02631   0.66278   0.81501   0.00000  Uiso   1.00
H264   H    -0.06961   0.77978   0.87703   0.00000  Uiso   1.00
H265   H     0.02918   0.87757   0.92374   0.00000  Uiso   1.00
H266   H     0.00081   0.88229   0.83917   0.00000  Uiso   1.00
H267   H    -0.00711   1.02670   0.92371   0.00000  Uiso   1.00
H268   H    -0.03526   0.98193   1.00196   0.00000  Uiso   1.00
H269   H    -0.12519   0.99921   0.96816   0.00000  Uiso   1.00
H270   H     0.75401   0.79333   0.82268   0.00000  Uiso   1.00
H271   H     0.86334   0.88976   0.79887   0.00000  Uiso   1.00
H272   H     0.76372   0.89755   0.84034   0.00000  Uiso   1.00
H273   H     0.19135  -0.16293   0.18134   0.00000  Uiso   1.00
H274   H     0.19830  -0.10839   0.10778   0.00000  Uiso   1.00
H275   H     0.28820  -0.04431   0.17273   0.00000  Uiso   1.00
H276   H     0.26427   0.82900  -0.01067   0.00000  Uiso   1.00
H277   H     0.18428   0.72777   0.02989   0.00000  Uiso   1.00
H278   H     0.31838   0.76978  -0.00705   0.00000  Uiso   1.00
H279   H     0.38959   0.18895   0.42644   0.00000  Uiso   1.00
H280   H     0.48584   0.19613   0.47440   0.00000  Uiso   1.00
H281   H     0.43796   0.26076   0.50498   0.00000  Uiso   1.00
H282   H     0.62564   0.36799   0.22193   0.00000  Uiso   1.00
H283   H     0.64197   0.37856   0.13066   0.00000  Uiso   1.00
H284   H     0.71314   0.34405   0.17845   0.00000  Uiso   1.00
H285   H     0.43718  -0.02920   0.49152   0.00000  Uiso   1.00
H286   H     0.51360   0.04180   0.42314   0.00000  Uiso   1.00
H287   H     0.49903   0.08876   0.50176   0.00000  Uiso   1.00
H288   H     0.47475   0.23432   0.06185   0.00000  Uiso   1.00
H289   H     0.41057   0.12473   0.08286   0.00000  Uiso   1.00
H290   H     0.54410   0.18017   0.05238   0.00000  Uiso   1.00
H291   H     0.45259   0.23017   0.28440   0.00000  Uiso   1.00
H292   H     0.35766   0.14971   0.21951   0.00000  Uiso   1.00
H293   H     0.41686   0.26353   0.21227   0.00000  Uiso   1.00
H294   H     0.24628   0.07327   0.79165   0.00000  Uiso   1.00
H295   H     0.16259   0.10467   0.79667   0.00000  Uiso   1.00
H296   H     0.15812   0.05089   0.86958   0.00000  Uiso   1.00
H297   H     0.42936   0.15739   0.87530   0.00000  Uiso   1.00
H298   H     0.36158   0.13952   0.95828   0.00000  Uiso   1.00
H299   H     0.46497   0.25193   0.93434   0.00000  Uiso   1.00
H300   H     0.30644   0.41840   0.11891   0.00000  Uiso   1.00
H301   H     0.27434   0.49510   0.12228   0.00000  Uiso   1.00
H302   H     0.33704   0.48832   0.04109   0.00000  Uiso   1.00
H303   H     0.26253   0.28632   0.33788   0.00000  Uiso   1.00
H304   H     0.39251   0.32700   0.34524   0.00000  Uiso   1.00
H305   H     0.34074   0.32715   0.26286   0.00000  Uiso   1.00
H306   H     0.45357   0.50250   0.45164   0.00000  Uiso   1.00
H307   H     0.31814   0.41791   0.46622   0.00000  Uiso   1.00
H308   H     0.35672   0.52669   0.44586   0.00000  Uiso   1.00
H309   H     0.45585   0.45121   0.04488   0.00000  Uiso   1.00
H310   H     0.54507   0.56824   0.05237   0.00000  Uiso   1.00
H311   H     0.59491   0.50255   0.02197   0.00000  Uiso   1.00
H312   H     0.16879   0.45004   0.84419   0.00000  Uiso   1.00
H313   H     0.21273   0.38645   0.85950   0.00000  Uiso   1.00
H314   H     0.26899   0.46158   0.78510   0.00000  Uiso   1.00
H315   H     0.47232   0.63633   0.80744   0.00000  Uiso   1.00
H316   H     0.47243   0.69839   0.88210   0.00000  Uiso   1.00
H317   H     0.37141   0.66126   0.82509   0.00000  Uiso   1.00
H318   H     0.34655   0.29052   0.58513   0.00000  Uiso   1.00
H319   H     0.45620   0.39726   0.55156   0.00000  Uiso   1.00
H320   H     0.33653   0.37972   0.56745   0.00000  Uiso   1.00
H321   H     0.28190   0.33846   0.78106   0.00000  Uiso   1.00
H322   H     0.24123   0.24513   0.72997   0.00000  Uiso   1.00
H323   H     0.20363   0.32011   0.71135   0.00000  Uiso   1.00
H324   H     0.68331   0.63772  -0.08206   0.00000  Uiso   1.00
H325   H     0.60365   0.67546  -0.06685   0.00000  Uiso   1.00
H326   H     0.60508   0.62825  -0.15338   0.00000  Uiso   1.00
H327   H     0.37280   0.54447   0.20756   0.00000  Uiso   1.00
H328   H     0.46195   0.59636   0.14080   0.00000  Uiso   1.00
H329   H     0.48116   0.66503   0.21479   0.00000  Uiso   1.00
H330   H     0.68599   0.65803   0.17344   0.00000  Uiso   1.00
H331   H     0.70012   0.62156   0.25033   0.00000  Uiso   1.00
H332   H     0.68268   0.71145   0.25061   0.00000  Uiso   1.00
H333   H     0.53017   0.42339   0.21769   0.00000  Uiso   1.00
H334   H     0.56228   0.47730   0.13879   0.00000  Uiso   1.00
H335   H     0.43145   0.41198   0.16673   0.00000  Uiso   1.00
H336   H     0.80225   0.93367   0.58915   0.00000  Uiso   1.00
H337   H     0.82498   1.04325   0.57652   0.00000  Uiso   1.00
H338   H     0.80014   0.95804   0.50644   0.00000  Uiso   1.00
H339   H     0.58862   0.81379   0.48424   0.00000  Uiso   1.00
H340   H     0.49356   0.77297   0.55255   0.00000  Uiso   1.00
H341   H     0.60908   0.77098   0.55271   0.00000  Uiso   1.00
H342   H     0.44440   0.68235   0.41616   0.00000  Uiso   1.00
H343   H     0.50000   0.67583   0.34639   0.00000  Uiso   1.00
H344   H     0.36176   0.62779   0.33897   0.00000  Uiso   1.00
H345   H     0.43798   0.82954   0.44196   0.00000  Uiso   1.00
H346   H     0.40715   0.87460   0.37582   0.00000  Uiso   1.00
H347   H     0.54086   0.92400   0.39304   0.00000  Uiso   1.00
H348   H     0.71563   1.01771   0.42383   0.00000  Uiso   1.00
H349   H     0.81280   1.13144   0.46101   0.00000  Uiso   1.00
H350   H     0.72825   1.11794   0.39865   0.00000  Uiso   1.00
H351   H     0.62174   0.80024   0.27103   0.00000  Uiso   1.00
H352   H     0.65415   0.85659   0.35278   0.00000  Uiso   1.00
H353   H     0.64066   0.91192   0.27994   0.00000  Uiso   1.00
H354   H     0.42921   0.88615   0.92622   0.00000  Uiso   1.00
H355   H     0.43235   0.98703   0.93734   0.00000  Uiso   1.00
H356   H     0.51057   0.97056   0.87252   0.00000  Uiso   1.00
H357   H     0.29557   1.00444   0.90459   0.00000  Uiso   1.00
H358   H     0.19253   0.88107   0.93100   0.00000  Uiso   1.00
H359   H     0.18991   0.93088   0.85517   0.00000  Uiso   1.00
H360   H     0.34307   0.82029   0.70244   0.00000  Uiso   1.00
H361   H     0.39714   0.76626   0.66180   0.00000  Uiso   1.00
H362   H     0.41693   0.85787   0.62246   0.00000  Uiso   1.00
H363   H     0.45447   0.82179   0.80454   0.00000  Uiso   1.00
H364   H     0.58502   0.91462   0.82334   0.00000  Uiso   1.00
H365   H     0.56895   0.82241   0.76643   0.00000  Uiso   1.00
H366   H     0.42786   0.00169   0.05475   0.00000  Uiso   1.00
H367   H     0.48352  -0.05825   0.02659   0.00000  Uiso   1.00
H368   H     0.50480  -0.00270   0.11266   0.00000  Uiso   1.00
H369   H     0.47540  -0.01555   0.30976   0.00000  Uiso   1.00
H370   H     0.41665  -0.00111   0.24528   0.00000  Uiso   1.00
H371   H     0.42789   0.04943   0.33019   0.00000  Uiso   1.00
H372   H     0.55788   0.19370   0.36880   0.00000  Uiso   1.00
H373   H     0.67303   0.28243   0.32973   0.00000  Uiso   1.00
H374   H     0.67210   0.19935   0.37240   0.00000  Uiso   1.00
H375   H     0.76142   0.15727   0.22941   0.00000  Uiso   1.00
H376   H     0.65749   0.06620   0.17915   0.00000  Uiso   1.00
H377   H     0.67767   0.05288   0.27352   0.00000  Uiso   1.00
H378   H     0.95614   0.13235   0.07673   0.00000  Uiso   1.00
H379   H     0.82361   0.03109   0.08526   0.00000  Uiso   1.00
H380   H     0.84930   0.12897   0.12640   0.00000  Uiso   1.00
H381   H     0.93875   0.29261   0.04420   0.00000  Uiso   1.00
H382   H     0.80206   0.24585   0.05741   0.00000  Uiso   1.00
H383   H     0.86788   0.28203  -0.02355   0.00000  Uiso   1.00
H384   H     0.81000   0.17223   0.78126   0.00000  Uiso   1.00
H385   H     0.69137   0.06681   0.79344   0.00000  Uiso   1.00
H386   H     0.75985   0.13456   0.86884   0.00000  Uiso   1.00
H387   H     0.66559   0.01450   1.03709   0.00000  Uiso   1.00
H388   H     0.67588   0.05006   0.95185   0.00000  Uiso   1.00
H389   H     0.65881   0.10511   1.02042   0.00000  Uiso   1.00
H390   H     0.57498   0.11617   0.92570   0.00000  Uiso   1.00
H391   H     0.59730   0.22507   0.92776   0.00000  Uiso   1.00
H392   H     0.68874   0.21051   0.95430   0.00000  Uiso   1.00
H393   H     0.88860   0.20210   0.58273   0.00000  Uiso   1.00
H394   H     0.81823   0.15314   0.65906   0.00000  Uiso   1.00
H395   H     0.95684   0.22317   0.66098   0.00000  Uiso   1.00
H396   H     0.67425   0.36828   0.01580   0.00000  Uiso   1.00
H397   H     0.80153   0.42547   0.05280   0.00000  Uiso   1.00
H398   H     0.76413   0.35768  -0.02484   0.00000  Uiso   1.00
H399   H     0.87402   0.25957   0.40532   0.00000  Uiso   1.00
H400   H     0.94860   0.31629   0.47756   0.00000  Uiso   1.00
H401   H     0.96632   0.36548   0.39406   0.00000  Uiso   1.00
H402   H     0.89489   0.44356   0.56663   0.00000  Uiso   1.00
H403   H     0.89133   0.50719   0.51045   0.00000  Uiso   1.00
H404   H     0.98945   0.48999   0.49134   0.00000  Uiso   1.00
H405   H     0.53924   0.43003   0.42843   0.00000  Uiso   1.00
H406   H     0.62015   0.38501   0.43522   0.00000  Uiso   1.00
H407   H     0.67608   0.48685   0.40064   0.00000  Uiso   1.00
H408   H     0.74371   0.43995   0.56905   0.00000  Uiso   1.00
H409   H     0.60400   0.38752   0.58008   0.00000  Uiso   1.00
H410   H     0.69159   0.48154   0.63578   0.00000  Uiso   1.00
H411   H     0.67313   0.60281   0.60770   0.00000  Uiso   1.00
H412   H     0.55979   0.55277   0.55480   0.00000  Uiso   1.00
H413   H     0.68273   0.64601   0.52450   0.00000  Uiso   1.00
H414   H     0.53520   0.54088   0.68381   0.00000  Uiso   1.00
H415   H     0.46638   0.51228   0.76267   0.00000  Uiso   1.00
H416   H     0.40850   0.52411   0.68410   0.00000  Uiso   1.00
H417   H     0.73058   0.45838   0.29420   0.00000  Uiso   1.00
H418   H     0.81955   0.45196   0.23140   0.00000  Uiso   1.00
H419   H     0.85134   0.55994   0.26573   0.00000  Uiso   1.00
H420   H     0.90966   0.49238   0.71081   0.00000  Uiso   1.00
H421   H     0.83216   0.49164   0.78268   0.00000  Uiso   1.00
H422   H     0.76998   0.41432   0.71188   0.00000  Uiso   1.00
H423   H     0.64245   0.55185   0.76460   0.00000  Uiso   1.00
H424   H     0.73125   0.52238   0.74189   0.00000  Uiso   1.00
H425   H     0.75627   0.59154   0.81303   0.00000  Uiso   1.00
H426   H     0.84942   0.63404   0.16600   0.00000  Uiso   1.00
H427   H     0.82779   0.53443   0.12157   0.00000  Uiso   1.00
H428   H     0.72893   0.55251   0.13705   0.00000  Uiso   1.00
H429   H     1.02134   0.70906   0.02713   0.00000  Uiso   1.00
H430   H     0.99985   0.77853   0.08977   0.00000  Uiso   1.00
H431   H     0.98372   0.77771  -0.00171   0.00000  Uiso   1.00
H432   H     0.84716   0.91338   0.09224   0.00000  Uiso   1.00
H433   H     0.93775   0.87809   0.08848   0.00000  Uiso   1.00
H434   H     0.83099   0.83954   0.15585   0.00000  Uiso   1.00
H435   H     0.87885   0.76046   0.25702   0.00000  Uiso   1.00
H436   H     0.95961   0.86543   0.29874   0.00000  Uiso   1.00
H437   H     0.83241   0.82791   0.28087   0.00000  Uiso   1.00
H438   H     0.63964   0.61361   0.37212   0.00000  Uiso   1.00
H439   H     0.65364   0.70767   0.35518   0.00000  Uiso   1.00
H440   H     0.64641   0.68769   0.44090   0.00000  Uiso   1.00
H441   H     0.83881   0.86639   0.45377   0.00000  Uiso   1.00
H442   H     0.95425   0.87370   0.44819   0.00000  Uiso   1.00
H443   H     0.84638   0.78774   0.49883   0.00000  Uiso   1.00
H444   H     0.63784   0.81333   0.93163   0.00000  Uiso   1.00
H445   H     0.69084   0.91396   0.98113   0.00000  Uiso   1.00
H446   H     0.55396   0.84915   0.95928   0.00000  Uiso   1.00
H447   H     0.55041   0.89346   1.10805   0.00000  Uiso   1.00
H448   H     0.67496   0.92138   1.13589   0.00000  Uiso   1.00
H449   H     0.55505   0.83560   1.16944   0.00000  Uiso   1.00
H450   H     0.41384   0.69318   1.10999   0.00000  Uiso   1.00
H451   H     0.43721   0.63510   1.03638   0.00000  Uiso   1.00
H452   H     0.40334   0.71407   1.02779   0.00000  Uiso   1.00
H453   H     0.89265   0.72344   0.75128   0.00000  Uiso   1.00
H454   H     0.98537   0.71521   0.69532   0.00000  Uiso   1.00
H455   H     0.84727   0.65226   0.67159   0.00000  Uiso   1.00
H456   H     1.03728   0.94731   0.71467   0.00000  Uiso   1.00
H457   H     1.09607   0.95933   0.63222   0.00000  Uiso   1.00
H458   H     1.11884   0.90969   0.69790   0.00000  Uiso   1.00
H459   H     0.77628   0.77756   0.70509   0.00000  Uiso   1.00
H460   H     0.77466   0.78093   0.61783   0.00000  Uiso   1.00
H461   H     0.85600   0.88653   0.66625   0.00000  Uiso   1.00
loop_
_geom_bond_atom_site_label_1
_geom_bond_atom_site_label_2
_geom_bond_distance
_geom_bond_site_symmetry_2
_ccdc_geom_bond_type
Si1    C52     1.831   .     S
Si1    O55     1.596   .     S
Si1    C53     1.868   1_545 S
Si1    C54     1.862   1_545 S
Si2    O55     1.627   .     S
Si2    O67     1.631   .     S
Si2    O59     1.606   1_554 S
Si2    O99     1.561   1_554 S
Si3    C56     1.850   .     S
Si3    O90     1.612   .     S
Si3    O78     1.606   1_545 S
Si3    O81     1.601   1_545 S
Si4    C57     1.812   .     S
Si4    C62     1.858   .     S
Si4    C58     1.864   1_455 S
Si4    O154    1.642   1_455 S
Si5    O59     1.590   .     S
Si5    C60     1.869   .     S
Si5    C61     1.886   1_455 S
Si5    O145    1.576   1_455 S
Si6    C63     1.816   .     S
Si6    C64     1.893   .     S
Si6    C65     1.887   .     S
Si6    O92     1.619   .     S
Si7    C66     1.887   .     S
Si7    O67     1.587   .     S
Si7    O69     1.624   .     S
Si7    C102    1.800   .     S
Si8    O70     1.590   .     S
Si8    O74     1.603   .     S
Si8    C68     1.916   1_455 S
Si8    O166    1.614   1_455 S
Si9    O69     1.608   .     S
Si9    O75     1.642   .     S
Si9    O73     1.679   1_554 S
Si9    O112    1.642   1_554 S
Si10   O70     1.627   .     S
Si10   C71     1.876   .     S
Si10   C72     1.867   .     S
Si10   O105    1.565   .     S
Si11   O73     1.667   .     S
Si11   O82     1.662   .     S
Si11   O157    1.601   1_455 S
Si11   O172    1.608   1_455 S
Si12   O74     1.558   .     S
Si12   O75     1.651   .     S
Si12   C76     1.868   .     S
Si12   O121    1.646   .     S
Si13   C77     1.871   .     S
Si13   O78     1.581   .     S
Si13   O185    1.577   1_455 S
Si13   O194    1.668   1_455 S
Si14   C79     1.857   .     S
Si14   C80     1.826   .     S
Si14   O81     1.625   .     S
Si14   O123    1.628   .     S
Si15   O82     1.667   .     S
Si15   C83     1.886   .     S
Si15   C84     1.803   .     S
Si15   O132    1.658   .     S
Si16   C85     1.827   .     S
Si16   C86     1.865   .     S
Si16   C87     1.816   1_455 S
Si16   O180    1.563   1_455 S
Si17   C88     1.901   .     S
Si17   C140    1.907   .     S
Si17   C89     1.892   1_545 S
Si17   O122    1.521   1_545 S
Si18   C94     1.887   .     S
Si18   O148    1.622   .     S
Si18   O125    1.569   1_545 S
Si18   C130    1.858   1_545 S
Si19   O90     1.615   .     S
Si19   C91     1.833   .     S
Si19   O92     1.591   .     S
Si19   O100    1.585   .     S
Si20   C93     1.813   .     S
Si20   C95     1.879   .     S
Si20   C96     1.872   .     S
Si20   O144    1.600   .     S
Si21   O101    1.618   .     S
Si21   O150    1.640   .     S
Si21   O134    1.565   1_545 S
Si21   O138    1.586   1_545 S
Si22   C97     1.904   .     S
Si22   C98     1.848   .     S
Si22   O99     1.627   .     S
Si22   O107    1.604   .     S
Si23   O100    1.628   .     S
Si23   O101    1.627   .     S
Si23   O108    1.647   .     S
Si23   O149    1.617   .     S
Si24   C103    1.850   .     S
Si24   C104    1.904   .     S
Si24   O105    1.624   .     S
Si24   O116    1.566   .     S
Si25   C106    1.862   .     S
Si25   C117    1.783   .     S
Si25   O110    1.646   1_554 S
Si25   O176    1.623   1_554 S
Si26   O107    1.617   .     S
Si26   O108    1.608   .     S
Si26   O114    1.576   .     S
Si26   O173    1.555   .     S
Si27   C109    1.795   .     S
Si27   O110    1.635   .     S
Si27   C111    1.908   .     S
Si27   O112    1.665   .     S
Si28   C113    1.876   .     S
Si28   O114    1.604   .     S
Si28   C115    1.917   .     S
Si28   C165    1.823   .     S
Si29   O116    1.557   .     S
Si29   C118    1.861   .     S
Si29   C119    1.863   .     S
Si29   C120    1.891   .     S
Si30   O121    1.616   .     S
Si30   O122    1.619   .     S
Si30   O123    1.595   .     S
Si30   O127    1.599   .     S
Si31   C124    1.802   .     S
Si31   O125    1.634   .     S
Si31   C126    1.838   .     S
Si31   O136    1.574   .     S
Si32   O127    1.607   .     S
Si32   C128    1.884   .     S
Si32   C129    1.883   .     S
Si32   C131    1.850   .     S
Si33   O132    1.632   .     S
Si33   C133    1.842   .     S
Si33   O134    1.651   .     S
Si33   C135    1.844   .     S
Si34   O136    1.533   .     S
Si34   C137    1.857   .     S
Si34   O138    1.560   .     S
Si34   C139    1.800   .     S
Si35   C141    1.868   .     S
Si35   C142    1.902   .     S
Si35   C143    1.815   .     S
Si35   O144    1.634   .     S
Si36   C146    1.832   .     S
Si36   C147    1.851   .     S
Si36   O145    1.603   1_554 S
Si36   C152    1.832   1_554 S
Si37   O148    1.650   .     S
Si37   O149    1.625   .     S
Si37   O155    1.632   .     S
Si37   O159    1.617   .     S
Si38   O150    1.625   .     S
Si38   C151    1.844   .     S
Si38   C153    1.816   .     S
Si38   O169    1.637   .     S
Si39   O154    1.571   .     S
Si39   O155    1.648   .     S
Si39   C156    1.863   .     S
Si39   O170    1.597   .     S
Si40   C158    1.945   .     S
Si40   O178    1.588   .     S
Si40   O157    1.601   1_554 S
Si40   O174    1.596   1_554 S
Si41   O159    1.573   .     S
Si41   C160    1.821   .     S
Si41   C161    1.862   .     S
Si41   O168    1.580   .     S
Si42   C162    1.898   .     S
Si42   C163    1.831   .     S
Si42   C164    1.852   .     S
Si42   O183    1.597   .     S
Si43   O166    1.667   .     S
Si43   C167    1.899   .     S
Si43   O168    1.621   .     S
Si43   O184    1.640   .     S
Si44   O169    1.626   .     S
Si44   O170    1.595   .     S
Si44   C171    1.903   .     S
Si44   O172    1.658   .     S
Si45   O173    1.627   .     S
Si45   O174    1.635   .     S
Si45   C175    1.837   .     S
Si45   O176    1.640   .     S
Si46   C177    1.807   .     S
Si46   O178    1.596   .     S
Si46   C179    1.853   .     S
Si46   O181    1.588   .     S
Si47   O181    1.612   .     S
Si47   C182    1.837   .     S
Si47   O180    1.594   1_554 S
Si47   O191    1.652   1_554 S
Si48   O183    1.631   .     S
Si48   O184    1.601   .     S
Si48   O185    1.561   .     S
Si48   O188    1.578   .     S
Si49   C186    1.916   .     S
Si49   C187    1.867   .     S
Si49   O188    1.563   .     S
Si49   C189    1.870   .     S
Si50   C190    1.869   .     S
Si50   O191    1.612   .     S
Si50   C192    1.867   .     S
Si50   C193    1.818   .     S
Si51   O194    1.546   .     S
Si51   C195    1.846   .     S
Si51   C196    1.857   .     S
Si51   C197    1.799   .     S
C52    H198    1.120   .     S
C52    H199    1.071   .     S
C52    H200    1.107   .     S
C53    H201    1.088   .     S
C53    H202    1.131   .     S
C53    H203    1.081   .     S
C53    Si1     1.868   1_565 S
C54    H204    1.083   .     S
C54    H205    1.054   .     S
C54    H206    1.094   .     S
C54    Si1     1.862   1_565 S
C56    H207    1.118   .     S
C56    H208    1.099   .     S
C56    H209    1.054   .     S
C57    H210    1.110   .     S
C57    H211    1.148   .     S
C57    H212    1.110   .     S
C58    H213    1.097   .     S
C58    H214    1.170   .     S
C58    H215    1.107   .     S
C58    Si4     1.864   1_655 S
O59    Si2     1.606   1_556 S
C60    H216    1.029   .     S
C60    H217    1.127   .     S
C60    H218    1.079   .     S
C61    H219    1.094   .     S
C61    H220    1.067   .     S
C61    H221    1.163   .     S
C61    Si5     1.886   1_655 S
C62    H222    1.124   .     S
C62    H223    1.139   .     S
C62    H224    1.118   .     S
C63    H225    1.114   .     S
C63    H226    1.038   .     S
C63    H227    1.151   .     S
C64    H228    1.120   .     S
C64    H229    1.134   .     S
C64    H230    1.095   .     S
C65    H231    1.149   .     S
C65    H232    1.134   .     S
C65    H233    1.134   .     S
C66    H234    1.090   .     S
C66    H235    1.061   .     S
C66    H236    1.052   .     S
C68    H237    1.143   .     S
C68    H238    1.129   .     S
C68    H239    1.150   .     S
C68    Si8     1.916   1_655 S
C71    H240    1.087   .     S
C71    H241    1.083   .     S
C71    H242    1.146   .     S
C72    H243    1.098   .     S
C72    H244    1.041   .     S
C72    H245    1.110   .     S
O73    Si9     1.679   1_556 S
C76    H246    1.095   .     S
C76    H247    1.115   .     S
C76    H248    1.120   .     S
C77    H249    1.162   .     S
C77    H250    1.108   .     S
C77    H251    1.119   .     S
O78    Si3     1.606   1_565 S
C79    H252    1.068   .     S
C79    H253    1.047   .     S
C79    H254    1.079   .     S
C80    H255    1.115   .     S
C80    H256    1.074   .     S
C80    H257    1.143   .     S
O81    Si3     1.601   1_565 S
C83    H258    1.062   .     S
C83    H259    1.085   .     S
C83    H260    1.095   .     S
C84    H261    1.173   .     S
C84    H262    1.089   .     S
C84    H263    1.082   .     S
C85    H264    1.091   .     S
C85    H265    1.111   .     S
C85    H266    1.096   .     S
C86    H267    1.102   .     S
C86    H268    1.049   .     S
C86    H269    1.091   .     S
C87    H270    1.063   .     S
C87    H271    1.085   .     S
C87    H272    1.161   .     S
C87    Si16    1.816   1_655 S
C88    H273    1.097   .     S
C88    H274    1.060   .     S
C88    H275    1.109   .     S
C89    H276    1.064   .     S
C89    H277    1.099   .     S
C89    H278    1.128   .     S
C89    Si17    1.892   1_565 S
C91    H279    1.126   .     S
C91    H280    1.073   .     S
C91    H281    1.142   .     S
C93    H282    1.154   .     S
C93    H283    1.116   .     S
C93    H284    1.106   .     S
C94    H285    1.123   .     S
C94    H286    1.118   .     S
C94    H287    1.084   .     S
C95    H288    1.090   .     S
C95    H289    1.128   .     S
C95    H290    1.098   .     S
C96    H291    1.106   .     S
C96    H292    1.082   .     S
C96    H293    1.136   .     S
C97    H294    1.110   .     S
C97    H295    1.065   .     S
C97    H296    1.109   .     S
C98    H297    1.121   .     S
C98    H298    1.092   .     S
C98    H299    1.091   .     S
O99    Si2     1.561   1_556 S
C102   H300    1.081   .     S
C102   H301    1.081   .     S
C102   H302    1.122   .     S
C103   H303    1.132   .     S
C103   H304    1.098   .     S
C103   H305    1.102   .     S
C104   H306    1.110   .     S
C104   H307    1.083   .     S
C104   H308    1.134   .     S
C106   H309    1.116   .     S
C106   H310    1.126   .     S
C106   H311    1.122   .     S
C109   H312    1.085   .     S
C109   H313    1.135   .     S
C109   H314    1.122   .     S
O110   Si25    1.646   1_556 S
C111   H315    1.132   .     S
C111   H316    1.137   .     S
C111   H317    1.095   .     S
O112   Si9     1.642   1_556 S
C113   H318    1.092   .     S
C113   H319    1.120   .     S
C113   H320    1.093   .     S
C115   H321    1.104   .     S
C115   H322    1.118   .     S
C115   H323    1.085   .     S
C117   H324    1.078   .     S
C117   H325    1.092   .     S
C117   H326    1.138   .     S
C118   H327    1.080   .     S
C118   H328    1.085   .     S
C118   H329    1.130   .     S
C119   H330    1.098   .     S
C119   H331    1.111   .     S
C119   H332    1.112   .     S
C120   H333    1.108   .     S
C120   H334    1.114   .     S
C120   H335    1.081   .     S
O122   Si17    1.521   1_565 S
C124   H336    1.114   .     S
C124   H337    1.119   .     S
C124   H338    1.156   .     S
O125   Si18    1.569   1_565 S
C126   H339    1.080   .     S
C126   H340    1.092   .     S
C126   H341    1.157   .     S
C128   H342    1.156   .     S
C128   H343    1.099   .     S
C128   H344    1.085   .     S
C129   H345    1.146   .     S
C129   H346    1.102   .     S
C129   H347    1.073   .     S
C130   H348    1.141   .     S
C130   H349    1.131   .     S
C130   H350    1.080   .     S
C130   Si18    1.858   1_565 S
C131   H351    1.138   .     S
C131   H352    1.163   .     S
C131   H353    1.104   .     S
C133   H354    1.107   .     S
C133   H355    1.124   .     S
C133   H356    1.123   .     S
O134   Si21    1.565   1_565 S
C135   H357    1.160   .     S
C135   H358    1.141   .     S
C135   H359    1.100   .     S
C137   H360    1.095   .     S
C137   H361    1.092   .     S
C137   H362    1.062   .     S
O138   Si21    1.586   1_565 S
C139   H363    1.084   .     S
C139   H364    1.108   .     S
C139   H365    1.148   .     S
C140   H366    1.112   .     S
C140   H367    1.095   .     S
C140   H368    1.098   .     S
C141   H369    1.053   .     S
C141   H370    1.089   .     S
C141   H371    1.094   .     S
C142   H372    1.101   .     S
C142   H373    1.120   .     S
C142   H374    1.078   .     S
C143   H375    1.097   .     S
C143   H376    1.193   .     S
C143   H377    1.172   .     S
O145   Si5     1.576   1_655 S
O145   Si36    1.603   1_556 S
C146   H378    1.107   .     S
C146   H379    1.139   .     S
C146   H380    1.075   .     S
C147   H381    1.064   .     S
C147   H382    1.105   .     S
C147   H383    1.071   .     S
C151   H384    1.137   .     S
C151   H385    1.139   .     S
C151   H386    1.097   .     S
C152   H387    1.109   .     S
C152   H388    1.071   .     S
C152   H389    1.110   .     S
C152   Si36    1.832   1_556 S
C153   H390    1.112   .     S
C153   H391    1.054   .     S
C153   H392    1.062   .     S
O154   Si4     1.642   1_655 S
C156   H393    1.084   .     S
C156   H394    1.109   .     S
C156   H395    1.076   .     S
O157   Si11    1.601   1_655 S
O157   Si40    1.601   1_556 S
C158   H396    1.078   .     S
C158   H397    1.106   .     S
C158   H398    1.096   .     S
C160   H399    1.104   .     S
C160   H400    1.123   .     S
C160   H401    1.048   .     S
C161   H402    1.071   .     S
C161   H403    1.048   .     S
C161   H404    1.095   .     S
C162   H405    1.135   .     S
C162   H406    1.122   .     S
C162   H407    1.040   .     S
C163   H408    1.130   .     S
C163   H409    1.102   .     S
C163   H410    1.126   .     S
C164   H411    1.165   .     S
C164   H412    1.091   .     S
C164   H413    1.103   .     S
C165   H414    1.108   .     S
C165   H415    1.136   .     S
C165   H416    1.147   .     S
O166   Si8     1.614   1_655 S
C167   H417    1.111   .     S
C167   H418    1.086   .     S
C167   H419    1.156   .     S
C171   H420    1.045   .     S
C171   H421    1.106   .     S
C171   H422    1.119   .     S
O172   Si11    1.608   1_655 S
O174   Si40    1.596   1_556 S
C175   H423    1.087   .     S
C175   H424    1.074   .     S
C175   H425    1.058   .     S
O176   Si25    1.623   1_556 S
C177   H426    1.071   .     S
C177   H427    1.130   .     S
C177   H428    1.077   .     S
C179   H429    1.104   .     S
C179   H430    1.193   .     S
C179   H431    1.093   .     S
O180   Si16    1.563   1_655 S
O180   Si47    1.594   1_556 S
C182   H432    1.099   .     S
C182   H433    1.136   .     S
C182   H434    1.118   .     S
O185   Si13    1.577   1_655 S
C186   H435    1.073   .     S
C186   H436    1.081   .     S
C186   H437    1.128   .     S
C187   H438    1.101   .     S
C187   H439    1.097   .     S
C187   H440    1.121   .     S
C189   H441    1.141   .     S
C189   H442    1.082   .     S
C189   H443    1.049   .     S
C190   H444    1.101   .     S
C190   H445    1.121   .     S
C190   H446    1.143   .     S
O191   Si47    1.652   1_556 S
C192   H447    1.075   .     S
C192   H448    1.119   .     S
C192   H449    1.032   .     S
C193   H450    1.123   .     S
C193   H451    1.122   .     S
C193   H452    1.100   .     S
O194   Si13    1.668   1_655 S
C195   H453    1.084   .     S
C195   H454    1.138   .     S
C195   H455    1.124   .     S
C196   H456    1.080   .     S
C196   H457    1.104   .     S
C196   H458    1.131   .     S
C197   H459    1.111   .     S
C197   H460    1.162   .     S
C197   H461    1.130   .     S
