data_333-9-11-16-15-30-3
_audit_creation_date              2025-03-07
_audit_creation_method            'Materials Studio'
_symmetry_space_group_name_H-M    'P1'
_symmetry_Int_Tables_number       1
_symmetry_cell_setting            triclinic
loop_
_symmetry_equiv_pos_as_xyz
  x,y,z
_cell_length_a                    17.9550
_cell_length_b                    16.9365
_cell_length_c                    20.2722
_cell_angle_alpha                 88.4877
_cell_angle_beta                  91.1380
_cell_angle_gamma                 119.4528
loop_
_atom_site_label
_atom_site_type_symbol
_atom_site_fract_x
_atom_site_fract_y
_atom_site_fract_z
_atom_site_U_iso_or_equiv
_atom_site_adp_type
_atom_site_occupancy
Si1    Si    0.08552  -0.15937   0.09090   0.00000  Uiso   1.00
Si2    Si   -0.00249   0.17515   0.24159   0.00000  Uiso   1.00
Si3    Si    0.01901  -0.11344   0.40029   0.00000  Uiso   1.00
Si4    Si    0.04729   0.23520   0.62990   0.00000  Uiso   1.00
Si5    Si   -0.10546   0.06031   0.95426   0.00000  Uiso   1.00
Si6    Si    0.20184   0.28357   0.71502   0.00000  Uiso   1.00
Si7    Si    0.16960   0.36638   0.52343   0.00000  Uiso   1.00
Si8    Si   -0.03279   0.48770   0.56087   0.00000  Uiso   1.00
Si9    Si    0.23649   0.47643   0.72148   0.00000  Uiso   1.00
Si10   Si   -0.05315   0.39547   0.87245   0.00000  Uiso   1.00
Si11   Si    0.13212   0.54772   0.63651   0.00000  Uiso   1.00
Si12   Si    0.01549   0.53625   0.11003   0.00000  Uiso   1.00
Si13   Si   -0.04307   0.75353   0.20006   0.00000  Uiso   1.00
Si14   Si    0.10348   0.69763   0.01467   0.00000  Uiso   1.00
Si15   Si    0.02322   0.58125   0.42107   0.00000  Uiso   1.00
Si16   Si    0.00159   0.80187   0.53625   0.00000  Uiso   1.00
Si17   Si    0.02410   0.73520   0.33503   0.00000  Uiso   1.00
Si18   Si    0.10722   0.74092   0.86511   0.00000  Uiso   1.00
Si19   Si    0.18528   0.87015   0.58482   0.00000  Uiso   1.00
Si20   Si    0.44291  -0.05045  -0.01687   0.00000  Uiso   1.00
Si21   Si    0.53801   0.13388  -0.08342   0.00000  Uiso   1.00
Si22   Si    0.51274   0.21494   0.42799   0.00000  Uiso   1.00
Si23   Si    0.59426   0.02892   0.71994   0.00000  Uiso   1.00
Si24   Si    0.39185   0.12925   0.83578   0.00000  Uiso   1.00
Si25   Si    0.56884   0.25813   0.03324   0.00000  Uiso   1.00
Si26   Si    0.36407   0.52063   0.15301   0.00000  Uiso   1.00
Si27   Si    0.42095   0.59102  -0.09258   0.00000  Uiso   1.00
Si28   Si    0.55008   0.34846   0.54191   0.00000  Uiso   1.00
Si29   Si    0.60842   0.48332   0.80210   0.00000  Uiso   1.00
Si30   Si    0.40220   0.64195   0.76428   0.00000  Uiso   1.00
Si31   Si    0.60203   0.57008   0.67175   0.00000  Uiso   1.00
Si32   Si    0.43406   0.66712   0.04382   0.00000  Uiso   1.00
Si33   Si    0.44832   0.83691   0.10266   0.00000  Uiso   1.00
Si34   Si    0.58376   0.73631   0.69758   0.00000  Uiso   1.00
Si35   Si    0.58329   0.89108   0.61754   0.00000  Uiso   1.00
Si36   Si    0.80783   0.03501   0.26636   0.00000  Uiso   1.00
Si37   Si    0.76015   0.12606  -0.03388   0.00000  Uiso   1.00
Si38   Si    0.98176   0.07598   0.53795   0.00000  Uiso   1.00
Si39   Si    0.86499   0.04519   0.80176   0.00000  Uiso   1.00
Si40   Si    0.69008   0.16127   0.82980   0.00000  Uiso   1.00
Si41   Si    0.88848   0.19676   0.70528   0.00000  Uiso   1.00
Si42   Si    0.81270   0.32209   0.50696   0.00000  Uiso   1.00
Si43   Si    0.71505   0.50792   0.59769   0.00000  Uiso   1.00
Si44   Si    0.74806   0.57785   0.35920   0.00000  Uiso   1.00
Si45   Si    0.82563   0.32088   0.75348   0.00000  Uiso   1.00
Si46   Si    0.85368   0.49175   0.68090   0.00000  Uiso   1.00
Si47   Si    0.79145   0.65574   0.11697   0.00000  Uiso   1.00
Si48   Si    0.82798   0.64885   0.49192   0.00000  Uiso   1.00
Si49   Si    0.94995   0.65970   0.76746   0.00000  Uiso   1.00
Si50   Si    0.70350   0.86353   0.80534   0.00000  Uiso   1.00
Si51   Si    0.96352   0.81566   0.67845   0.00000  Uiso   1.00
C52    C     0.03766  -0.10468   0.03956   0.00000  Uiso   1.00
C53    C     0.17827  -0.07012   0.13573   0.00000  Uiso   1.00
C54    C    -0.01060   0.20033   0.15312   0.00000  Uiso   1.00
C55    C     0.01014   0.26997   0.29509   0.00000  Uiso   1.00
C56    C     1.09230   0.16234   0.26097   0.00000  Uiso   1.00
C57    C    -0.06198  -0.07568   0.38342   0.00000  Uiso   1.00
C58    C     0.11976  -0.02287   0.36721   0.00000  Uiso   1.00
C59    C    -0.16566  -0.05470   0.98738   0.00000  Uiso   1.00
O60    O     0.11933   0.22947   0.66777   0.00000  Uiso   1.00
C61    C     0.17299   0.25382   0.80205   0.00000  Uiso   1.00
C62    C     0.28289   0.25304   0.69339   0.00000  Uiso   1.00
O63    O     0.09721   0.31916   0.57895   0.00000  Uiso   1.00
C64    C     0.20387   0.29221   0.48774   0.00000  Uiso   1.00
C65    C     0.12621   0.41143   0.45411   0.00000  Uiso   1.00
C66    C     0.27350   0.46471   0.55753   0.00000  Uiso   1.00
C67    C     0.00487   0.13609   0.98692   0.00000  Uiso   1.00
C68    C     0.19528   0.47121   0.80301   0.00000  Uiso   1.00
O69    O     0.24209   0.39018   0.70470   0.00000  Uiso   1.00
C70    C    -0.03215   0.30542   0.89955   0.00000  Uiso   1.00
C71    C     0.05331   0.50497   0.88157   0.00000  Uiso   1.00
C72    C     0.86612   0.40953   0.92003   0.00000  Uiso   1.00
O73    O     0.05087   0.49156   0.59210   0.00000  Uiso   1.00
O74    O     0.17531   0.49092   0.66772   0.00000  Uiso   1.00
C75    C     0.08929   0.57273   0.70812   0.00000  Uiso   1.00
C76    C     0.21209   0.64985   0.58564   0.00000  Uiso   1.00
C77    C    -0.10077   0.48339   0.13806   0.00000  Uiso   1.00
C78    C     0.02106   0.43316   0.07944   0.00000  Uiso   1.00
C79    C     0.09019   0.59146   0.18204   0.00000  Uiso   1.00
O80    O     0.02045   0.76780   0.14244   0.00000  Uiso   1.00
C81    C     0.96015   0.86035   0.21825   0.00000  Uiso   1.00
O82    O     0.03131   0.61025   0.05173   0.00000  Uiso   1.00
O83    O     0.12063   0.79249   0.04385   0.00000  Uiso   1.00
C84    C     0.20794   0.69557   1.02277   0.00000  Uiso   1.00
O85    O    -0.01434   0.55917   0.49583   0.00000  Uiso   1.00
C86    C    -0.00618   0.47087   0.37749   0.00000  Uiso   1.00
C87    C     0.13914   0.63545   0.42974   0.00000  Uiso   1.00
O88    O     0.02275   0.87296   0.47992   0.00000  Uiso   1.00
O89    O    -0.01983   0.70754   0.26249   0.00000  Uiso   1.00
O90    O    -0.00820   0.64484   0.38187   0.00000  Uiso   1.00
O91    O    -0.00562   0.79643   0.36568   0.00000  Uiso   1.00
C92    C     0.14469   0.80134   0.32426   0.00000  Uiso   1.00
O93    O     0.07561   0.69298   0.93731   0.00000  Uiso   1.00
C94    C     0.21279   0.75360   0.84583   0.00000  Uiso   1.00
C95    C     1.11016   0.85052   0.87648   0.00000  Uiso   1.00
O96    O     0.09151   0.80671   0.55292   0.00000  Uiso   1.00
C97    C     0.20894   0.83284   0.66460   0.00000  Uiso   1.00
C98    C     0.21198   0.98619   0.59572   0.00000  Uiso   1.00
C99    C     0.26418   0.88973   0.51902   0.00000  Uiso   1.00
C100   C     0.35277  -0.03327   0.00736   0.00000  Uiso   1.00
C101   C     0.41277   0.86684  -0.08289   0.00000  Uiso   1.00
O102   O     0.52045   0.04526  -0.04634   0.00000  Uiso   1.00
C103   C     0.54582   0.12697   0.45401   0.00000  Uiso   1.00
C104   C     0.55704   0.26041   0.34288   0.00000  Uiso   1.00
C105   C     0.38767   0.15332   0.43120   0.00000  Uiso   1.00
C106   C     0.56802   0.09466   0.65542   0.00000  Uiso   1.00
C107   C     0.49767   0.96038   0.76809   0.00000  Uiso   1.00
C108   C     0.46827   0.20593   0.76891   0.00000  Uiso   1.00
O109   O     0.44639   0.11964   0.89216   0.00000  Uiso   1.00
C110   C     0.32117   0.02112   0.80114   0.00000  Uiso   1.00
C111   C     0.46332   0.25692   0.04088   0.00000  Uiso   1.00
O112   O     0.57701   0.22040  -0.03565   0.00000  Uiso   1.00
C113   C     0.57388   0.18094   0.09775   0.00000  Uiso   1.00
C114   C     0.41841   0.59966   0.22260   0.00000  Uiso   1.00
C115   C     0.24671   0.44357   0.17633   0.00000  Uiso   1.00
C116   C     0.42030   0.45253   0.13652   0.00000  Uiso   1.00
C117   C     0.65766   0.37543   0.04558   0.00000  Uiso   1.00
C118   C     0.35263   0.47027  -0.07075   0.00000  Uiso   1.00
C119   C     0.53434   0.62250   0.89559   0.00000  Uiso   1.00
C120   C     0.47810   0.26554   0.60137   0.00000  Uiso   1.00
O121   O     0.55662   0.29046   0.48322   0.00000  Uiso   1.00
C122   C     0.50212   0.41723   0.50997   0.00000  Uiso   1.00
C123   C     0.32200   0.16638   0.87101   0.00000  Uiso   1.00
C124   C     0.48827   0.42923   0.82464   0.00000  Uiso   1.00
C125   C     0.65029   0.40686   0.77950   0.00000  Uiso   1.00
C126   C     0.66616   0.53156   0.88272   0.00000  Uiso   1.00
O127   O     0.33325   0.55872   0.72078   0.00000  Uiso   1.00
O128   O     0.38864   0.61583   0.83886   0.00000  Uiso   1.00
C129   C     0.38107   0.73328   0.74904   0.00000  Uiso   1.00
C130   C     0.48699   0.48948   0.65726   0.00000  Uiso   1.00
O131   O     0.62705   0.55709   0.74578   0.00000  Uiso   1.00
O132   O     0.37486   0.57714   0.08797   0.00000  Uiso   1.00
O133   O     0.41385   0.64667  -0.03305   0.00000  Uiso   1.00
C134   C     0.55169   0.69886   0.06213   0.00000  Uiso   1.00
O135   O     0.41886   0.74427   0.06446   0.00000  Uiso   1.00
O136   O     0.47171   0.91739   0.04908   0.00000  Uiso   1.00
C137   C     0.54570   0.87967   1.15252   0.00000  Uiso   1.00
O138   O     0.50021   0.67423   0.74374   0.00000  Uiso   1.00
O139   O     0.61167   0.66949   0.66467   0.00000  Uiso   1.00
C140   C     0.48753   0.88752   0.58027   0.00000  Uiso   1.00
O141   O     0.56287   0.79361   0.64549   0.00000  Uiso   1.00
O142   O     0.61039   0.95624   0.67832   0.00000  Uiso   1.00
C143   C     0.67016   0.94050   0.55312   0.00000  Uiso   1.00
O144   O     0.90972   0.08390   0.26079   0.00000  Uiso   1.00
C145   C     0.77135   1.04693   0.34689   0.00000  Uiso   1.00
C146   C     0.75874   0.90896   0.25269   0.00000  Uiso   1.00
O147   O     0.84547   0.11770   0.97098   0.00000  Uiso   1.00
C148   C     0.76898   0.07513   0.19689   0.00000  Uiso   1.00
C149   C     0.67071   0.02005   0.00203   0.00000  Uiso   1.00
C150   C     0.77567   0.22241   0.02359   0.00000  Uiso   1.00
C151   C     0.96931   0.12157   0.45612   0.00000  Uiso   1.00
O152   O     0.98925   0.14445   0.59224   0.00000  Uiso   1.00
C153   C     0.88769   0.96329   0.55742   0.00000  Uiso   1.00
C154   C     1.08870   1.07196   0.53823   0.00000  Uiso   1.00
O155   O     0.89450   0.05564   0.87672   0.00000  Uiso   1.00
O156   O     0.66838   0.09038   0.77108   0.00000  Uiso   1.00
O157   O     0.74110   0.14075   0.88814   0.00000  Uiso   1.00
O158   O     0.60150   0.15136   0.85591   0.00000  Uiso   1.00
O159   O     0.98434   0.25156   0.67786   0.00000  Uiso   1.00
C160   C     0.82511   0.11537   0.64346   0.00000  Uiso   1.00
O161   O     0.87376   0.13718   0.77002   0.00000  Uiso   1.00
C162   C     0.82655   0.23233   0.46330   0.00000  Uiso   1.00
C163   C     0.77468   0.36842   0.43926   0.00000  Uiso   1.00
O164   O     0.90437   0.39094   0.53464   0.00000  Uiso   1.00
O165   O     0.64218   0.40489   0.57690   0.00000  Uiso   1.00
O166   O     0.66667   0.56315   0.62134   0.00000  Uiso   1.00
C167   C     0.77309   0.51763   0.29942   0.00000  Uiso   1.00
C168   C     0.72974   0.66324   0.31461   0.00000  Uiso   1.00
C169   C     0.73603   0.27870   0.57349   0.00000  Uiso   1.00
C170   C     0.65072   0.50611   0.39720   0.00000  Uiso   1.00
O171   O     0.74678   0.25943   0.80056   0.00000  Uiso   1.00
O172   O     0.84397   0.25924   0.70964   0.00000  Uiso   1.00
O173   O     0.90911   0.37937   0.79899   0.00000  Uiso   1.00
O174   O     0.91533   0.50864   0.61755   0.00000  Uiso   1.00
O175   O     0.77597   0.50791   0.65716   0.00000  Uiso   1.00
O176   O     0.81128   0.38896   0.71011   0.00000  Uiso   1.00
C177   C     0.68520   0.56743   0.15070   0.00000  Uiso   1.00
C178   C     0.82220   0.61582   0.04189   0.00000  Uiso   1.00
C179   C     0.79782   0.76153   0.08781   0.00000  Uiso   1.00
O180   O     0.86406   0.68255   0.17287   0.00000  Uiso   1.00
O181   O     0.77600   0.55784   0.53481   0.00000  Uiso   1.00
O182   O     0.81934   0.62293   0.41637   0.00000  Uiso   1.00
C183   C     0.77268   0.71729   0.50161   0.00000  Uiso   1.00
O184   O     0.92874   0.70523   0.51263   0.00000  Uiso   1.00
C185   C     0.87106   0.65813   0.82758   0.00000  Uiso   1.00
O186   O     0.91048   0.56162   0.73874   0.00000  Uiso   1.00
O187   O     1.03791   0.68709   0.80784   0.00000  Uiso   1.00
O188   O     0.66492   0.81286   0.74003   0.00000  Uiso   1.00
C189   C     0.75436   0.80256   0.85351   0.00000  Uiso   1.00
O190   O     0.77424   0.96084   0.78945   0.00000  Uiso   1.00
C191   C     0.61962   0.86321   0.85735   0.00000  Uiso   1.00
C192   C     0.36102   0.82250   1.15631   0.00000  Uiso   1.00
O193   O     0.97629   0.83396   0.60088   0.00000  Uiso   1.00
C194   C     0.85503   0.79867   0.69563   0.00000  Uiso   1.00
O195   O     0.96667   0.72833   0.70352   0.00000  Uiso   1.00
C196   C     1.04375   0.91432   0.72143   0.00000  Uiso   1.00
C197   C     0.94190   1.02137   0.76038   0.00000  Uiso   1.00
H198   H     0.01355  -0.08243   0.07864   0.00000  Uiso   1.00
H199   H    -0.01456  -0.14698   0.00350   0.00000  Uiso   1.00
H200   H     0.09117  -0.04380   0.01623   0.00000  Uiso   1.00
H201   H     0.21993  -0.09999   0.15173   0.00000  Uiso   1.00
H202   H     0.16125  -0.05173   0.18540   0.00000  Uiso   1.00
H203   H     0.21678  -0.00933   0.10030   0.00000  Uiso   1.00
H204   H     0.05603   0.24771   0.13619   0.00000  Uiso   1.00
H205   H    -0.04523   0.24064   0.14834   0.00000  Uiso   1.00
H206   H    -0.04461   0.14119   0.12357   0.00000  Uiso   1.00
H207   H     0.07928   0.31661   0.29986   0.00000  Uiso   1.00
H208   H    -0.02319   0.24867   0.34405   0.00000  Uiso   1.00
H209   H    -0.02112   0.30880   0.26745   0.00000  Uiso   1.00
H210   H     1.10142   0.15911   0.31610   0.00000  Uiso   1.00
H211   H     1.15359   0.22053   0.24212   0.00000  Uiso   1.00
H212   H     1.08468   0.09920   0.24141   0.00000  Uiso   1.00
H213   H    -0.03888  -0.03039   0.34312   0.00000  Uiso   1.00
H214   H    -0.07657  -0.05236   0.43075   0.00000  Uiso   1.00
H215   H    -0.12276  -0.14152   0.36954   0.00000  Uiso   1.00
H216   H     0.11709   0.03872   0.37289   0.00000  Uiso   1.00
H217   H     0.12657  -0.03040   0.31165   0.00000  Uiso   1.00
H218   H     0.17776  -0.02167   0.39063   0.00000  Uiso   1.00
H219   H    -0.22574  -0.09899   0.96129   0.00000  Uiso   1.00
H220   H    -0.17982  -0.04622   1.03809   0.00000  Uiso   1.00
H221   H    -0.12680  -0.08825   0.98986   0.00000  Uiso   1.00
H222   H     0.14666   0.17872   0.80655   0.00000  Uiso   1.00
H223   H     0.12889   0.27491   0.82270   0.00000  Uiso   1.00
H224   H     0.23231   0.28794   0.82708   0.00000  Uiso   1.00
H225   H     0.30538   0.28984   0.64499   0.00000  Uiso   1.00
H226   H     0.25756   0.18102   0.68594   0.00000  Uiso   1.00
H227   H     0.33478   0.27000   0.72898   0.00000  Uiso   1.00
H228   H     0.14854   0.23533   0.46315   0.00000  Uiso   1.00
H229   H     0.23856   0.26655   0.52302   0.00000  Uiso   1.00
H230   H     0.25956   0.33557   0.45640   0.00000  Uiso   1.00
H231   H     0.17870   0.45985   0.42304   0.00000  Uiso   1.00
H232   H     0.09903   0.44617   0.48002   0.00000  Uiso   1.00
H233   H     0.07160   0.35937   0.42226   0.00000  Uiso   1.00
H234   H     0.30145   0.43692   0.59611   0.00000  Uiso   1.00
H235   H     0.26519   0.52277   0.57723   0.00000  Uiso   1.00
H236   H     0.31298   0.49929   0.51569   0.00000  Uiso   1.00
H237   H     0.02795   0.10604   1.02399   0.00000  Uiso   1.00
H238   H    -0.00238   0.18937   1.00904   0.00000  Uiso   1.00
H239   H     0.04892   0.15677   0.94322   0.00000  Uiso   1.00
H240   H     0.12316   0.41889   0.80070   0.00000  Uiso   1.00
H241   H     0.20573   0.53639   0.81712   0.00000  Uiso   1.00
H242   H     0.22744   0.44049   0.83706   0.00000  Uiso   1.00
H243   H    -0.08368   0.24106   0.87504   0.00000  Uiso   1.00
H244   H    -0.03174   0.29829   0.95307   0.00000  Uiso   1.00
H245   H     0.03464   0.32586   0.87999   0.00000  Uiso   1.00
H246   H     0.05245   0.53653   0.92891   0.00000  Uiso   1.00
H247   H     0.06080   0.54842   0.83949   0.00000  Uiso   1.00
H248   H     0.10817   0.49282   0.89389   0.00000  Uiso   1.00
H249   H     0.80347   0.34537   0.91947   0.00000  Uiso   1.00
H250   H     0.85579   0.46354   0.89606   0.00000  Uiso   1.00
H251   H     0.88381   0.43662   0.96914   0.00000  Uiso   1.00
H252   H     0.04775   0.50766   0.73880   0.00000  Uiso   1.00
H253   H     0.05447   0.60590   0.68761   0.00000  Uiso   1.00
H254   H     0.14089   0.61848   0.74069   0.00000  Uiso   1.00
H255   H     0.24047   0.63297   0.54647   0.00000  Uiso   1.00
H256   H     0.26430   0.69691   0.61704   0.00000  Uiso   1.00
H257   H     0.17946   0.68397   0.56566   0.00000  Uiso   1.00
H258   H    -0.14808   0.44006   0.09896   0.00000  Uiso   1.00
H259   H    -0.10945   0.54390   0.15166   0.00000  Uiso   1.00
H260   H    -0.10343   0.44313   0.18211   0.00000  Uiso   1.00
H261   H     0.00748   0.39024   0.12470   0.00000  Uiso   1.00
H262   H     0.08169   0.44304   0.05880   0.00000  Uiso   1.00
H263   H    -0.03110   0.39817   0.04469   0.00000  Uiso   1.00
H264   H     0.10435   0.66613   0.18456   0.00000  Uiso   1.00
H265   H     0.15235   0.59084   0.18512   0.00000  Uiso   1.00
H266   H     0.06050   0.55653   0.22632   0.00000  Uiso   1.00
H267   H     0.91113   0.84264   0.25574   0.00000  Uiso   1.00
H268   H     0.93928   0.87883   0.17164   0.00000  Uiso   1.00
H269   H     1.02528   0.91290   0.23410   0.00000  Uiso   1.00
H270   H     0.21072   0.64578   0.98844   0.00000  Uiso   1.00
H271   H     0.20685   0.67793   1.07452   0.00000  Uiso   1.00
H272   H     0.26012   0.76434   1.01306   0.00000  Uiso   1.00
H273   H    -0.01833   0.42119   0.41310   0.00000  Uiso   1.00
H274   H     0.04285   0.47426   0.34160   0.00000  Uiso   1.00
H275   H    -0.06135   0.45084   0.34584   0.00000  Uiso   1.00
H276   H     0.15397   0.59809   0.46861   0.00000  Uiso   1.00
H277   H     0.16144   0.70575   0.44295   0.00000  Uiso   1.00
H278   H     0.16408   0.63010   0.38146   0.00000  Uiso   1.00
H279   H     0.16077   0.84755   0.28306   0.00000  Uiso   1.00
H280   H     0.16449   0.75131   0.31411   0.00000  Uiso   1.00
H281   H     0.17867   0.84102   0.36695   0.00000  Uiso   1.00
H282   H     0.24287   0.80184   0.80542   0.00000  Uiso   1.00
H283   H     0.20203   0.68451   0.83364   0.00000  Uiso   1.00
H284   H     0.24842   0.78352   0.89009   0.00000  Uiso   1.00
H285   H     1.04675   0.83980   0.88519   0.00000  Uiso   1.00
H286   H     1.14249   0.89184   0.82970   0.00000  Uiso   1.00
H287   H     1.14239   0.87631   0.92399   0.00000  Uiso   1.00
H288   H     0.18177   0.85405   0.70387   0.00000  Uiso   1.00
H289   H     0.27847   0.85447   0.67909   0.00000  Uiso   1.00
H290   H     0.18186   0.75947   0.66431   0.00000  Uiso   1.00
H291   H     0.14805   0.97588   0.61250   0.00000  Uiso   1.00
H292   H     0.22511   1.02485   0.55004   0.00000  Uiso   1.00
H293   H     0.26012   1.02274   0.63606   0.00000  Uiso   1.00
H294   H     0.32765   0.92913   0.53621   0.00000  Uiso   1.00
H295   H     0.24773   0.91349   0.47372   0.00000  Uiso   1.00
H296   H     0.26360   0.82457   0.50562   0.00000  Uiso   1.00
H297   H     0.32078  -0.02378  -0.03620   0.00000  Uiso   1.00
H298   H     0.37086   0.02389   0.04215   0.00000  Uiso   1.00
H299   H     0.30479  -0.09230   0.03096   0.00000  Uiso   1.00
H300   H     0.39398   0.89116  -0.12671   0.00000  Uiso   1.00
H301   H     0.36297   0.80270  -0.06549   0.00000  Uiso   1.00
H302   H     0.46853   0.85526  -0.08751   0.00000  Uiso   1.00
H303   H     0.51926   0.06434   0.42400   0.00000  Uiso   1.00
H304   H     0.52431   0.10617   0.50782   0.00000  Uiso   1.00
H305   H     0.61800   0.16495   0.45127   0.00000  Uiso   1.00
H306   H     0.52816   0.30123   0.32006   0.00000  Uiso   1.00
H307   H     0.54354   0.20596   0.30995   0.00000  Uiso   1.00
H308   H     0.62698   0.31042   0.34249   0.00000  Uiso   1.00
H309   H     0.36646   0.10910   0.47413   0.00000  Uiso   1.00
H310   H     0.35610   0.11308   0.38518   0.00000  Uiso   1.00
H311   H     0.37201   0.20744   0.43546   0.00000  Uiso   1.00
H312   H     0.61646   0.10523   0.61488   0.00000  Uiso   1.00
H313   H     0.57865   0.15883   0.67499   0.00000  Uiso   1.00
H314   H     0.50383   0.06246   0.63276   0.00000  Uiso   1.00
H315   H     0.48999   1.00972   0.79632   0.00000  Uiso   1.00
H316   H     0.51183   0.91565   0.80209   0.00000  Uiso   1.00
H317   H     0.44133   0.93207   0.73224   0.00000  Uiso   1.00
H318   H     0.53833   0.22964   0.78046   0.00000  Uiso   1.00
H319   H     0.46286   0.26570   0.75533   0.00000  Uiso   1.00
H320   H     0.45229   0.16085   0.72615   0.00000  Uiso   1.00
H321   H     0.35596   0.00411   0.76338   0.00000  Uiso   1.00
H322   H     0.26904   0.02164   0.77280   0.00000  Uiso   1.00
H323   H     0.29690  -0.02949   0.84394   0.00000  Uiso   1.00
H324   H     0.46754   0.32353   0.03025   0.00000  Uiso   1.00
H325   H     0.42234   0.22775   0.08663   0.00000  Uiso   1.00
H326   H     0.41731   0.21625   0.00228   0.00000  Uiso   1.00
H327   H     0.52909   0.17419   0.13765   0.00000  Uiso   1.00
H328   H     0.64158   0.21743   0.12051   0.00000  Uiso   1.00
H329   H     0.55877   0.11857   0.07734   0.00000  Uiso   1.00
H330   H     0.37603   0.62394   0.23868   0.00000  Uiso   1.00
H331   H     0.47761   0.66056   0.20213   0.00000  Uiso   1.00
H332   H     0.43281   0.56647   0.26561   0.00000  Uiso   1.00
H333   H     0.20836   0.47764   0.17690   0.00000  Uiso   1.00
H334   H     0.24911   0.41352   0.22650   0.00000  Uiso   1.00
H335   H     0.21516   0.38946   0.14314   0.00000  Uiso   1.00
H336   H     0.48903   0.50659   0.13840   0.00000  Uiso   1.00
H337   H     0.40127   0.41664   0.08780   0.00000  Uiso   1.00
H338   H     0.40658   0.40470   0.17817   0.00000  Uiso   1.00
H339   H     0.71439   0.38879   0.01754   0.00000  Uiso   1.00
H340   H     0.68012   0.38020   0.09879   0.00000  Uiso   1.00
H341   H     0.63323   0.42274   0.03851   0.00000  Uiso   1.00
H342   H     0.28779   0.45742  -0.05795   0.00000  Uiso   1.00
H343   H     0.38349   0.45327  -0.02945   0.00000  Uiso   1.00
H344   H     0.33533   0.42078  -0.11033   0.00000  Uiso   1.00
H345   H     0.54899   0.57397   0.92101   0.00000  Uiso   1.00
H346   H     0.57690   0.69184   0.90804   0.00000  Uiso   1.00
H347   H     0.54827   0.61946   0.84375   0.00000  Uiso   1.00
H348   H     0.47121   0.30211   0.64343   0.00000  Uiso   1.00
H349   H     0.49956   0.21457   0.61393   0.00000  Uiso   1.00
H350   H     0.41504   0.22796   0.57628   0.00000  Uiso   1.00
H351   H     0.43422   0.38976   0.52641   0.00000  Uiso   1.00
H352   H     0.49724   0.40861   0.45463   0.00000  Uiso   1.00
H353   H     0.54126   0.48228   0.53079   0.00000  Uiso   1.00
H354   H     0.35998   0.23977   0.88509   0.00000  Uiso   1.00
H355   H     0.28724   0.11839   0.91369   0.00000  Uiso   1.00
H356   H     0.27690   0.16483   0.83257   0.00000  Uiso   1.00
H357   H     0.46777   0.48164   0.81728   0.00000  Uiso   1.00
H358   H     0.47659   0.40520   0.87472   0.00000  Uiso   1.00
H359   H     0.44537   0.36882   0.79797   0.00000  Uiso   1.00
H360   H     0.63608   0.36236   0.82022   0.00000  Uiso   1.00
H361   H     0.72086   0.44916   0.78462   0.00000  Uiso   1.00
H362   H     0.63183   0.37954   0.72856   0.00000  Uiso   1.00
H363   H     0.72029   0.51504   0.89722   0.00000  Uiso   1.00
H364   H     0.62091   0.50372   0.92473   0.00000  Uiso   1.00
H365   H     0.69283   0.60326   0.88356   0.00000  Uiso   1.00
H366   H     0.41577   0.77215   0.70864   0.00000  Uiso   1.00
H367   H     0.39263   0.77481   0.79269   0.00000  Uiso   1.00
H368   H     0.31039   0.70728   0.74438   0.00000  Uiso   1.00
H369   H     0.46677   0.42581   0.64203   0.00000  Uiso   1.00
H370   H     0.45620   0.51188   0.62040   0.00000  Uiso   1.00
H371   H     0.45392   0.48523   0.70585   0.00000  Uiso   1.00
H372   H     0.56224   0.63915   0.05816   0.00000  Uiso   1.00
H373   H     0.56197   0.73232   0.11077   0.00000  Uiso   1.00
H374   H     0.59325   0.75206   0.02804   0.00000  Uiso   1.00
H375   H     0.55801   0.94629   1.17273   0.00000  Uiso   1.00
H376   H     0.59894   0.88800   1.12581   0.00000  Uiso   1.00
H377   H     0.53242   0.83948   1.19910   0.00000  Uiso   1.00
H378   H     0.50353   0.94703   0.54496   0.00000  Uiso   1.00
H379   H     0.44824   0.89729   0.61608   0.00000  Uiso   1.00
H380   H     0.44053   0.82336   0.56009   0.00000  Uiso   1.00
H381   H     0.72954   0.94592   0.57389   0.00000  Uiso   1.00
H382   H     0.67605   1.00540   0.53284   0.00000  Uiso   1.00
H383   H     0.65154   0.88811   0.51328   0.00000  Uiso   1.00
H384   H     0.77158   0.99444   0.38247   0.00000  Uiso   1.00
H385   H     0.70222   1.03263   0.34404   0.00000  Uiso   1.00
H386   H     0.81943   1.11352   0.36394   0.00000  Uiso   1.00
H387   H     0.68742   0.88038   0.25681   0.00000  Uiso   1.00
H388   H     0.78275   0.88503   0.29484   0.00000  Uiso   1.00
H389   H     0.77498   0.88346   0.20890   0.00000  Uiso   1.00
H390   H     0.69834   0.04002   0.20128   0.00000  Uiso   1.00
H391   H     0.78202   0.05162   0.15215   0.00000  Uiso   1.00
H392   H     0.79454   0.15141   0.19876   0.00000  Uiso   1.00
H393   H     0.64542   0.04449   0.04486   0.00000  Uiso   1.00
H394   H     0.69486  -0.02556   0.02254   0.00000  Uiso   1.00
H395   H     0.62373  -0.01601  -0.03683   0.00000  Uiso   1.00
H396   H     0.72984   0.24654   0.01216   0.00000  Uiso   1.00
H397   H     0.83487   0.28066   0.01639   0.00000  Uiso   1.00
H398   H     0.77156   0.20359   0.07547   0.00000  Uiso   1.00
H399   H     1.00011   0.10211   0.41774   0.00000  Uiso   1.00
H400   H     0.99588   0.19274   0.46032   0.00000  Uiso   1.00
H401   H     0.89639   0.08310   0.44618   0.00000  Uiso   1.00
H402   H     0.86628   0.96876   0.60736   0.00000  Uiso   1.00
H403   H     0.90798   0.91321   0.55032   0.00000  Uiso   1.00
H404   H     0.83818   0.94819   0.52164   0.00000  Uiso   1.00
H405   H     1.07893   1.00385   0.53800   0.00000  Uiso   1.00
H406   H     1.12709   1.10411   0.58279   0.00000  Uiso   1.00
H407   H     1.11014   1.09871   0.48554   0.00000  Uiso   1.00
H408   H     0.75994   0.10847   0.64877   0.00000  Uiso   1.00
H409   H     0.82518   0.05098   0.64977   0.00000  Uiso   1.00
H410   H     0.85036   0.14515   0.59276   0.00000  Uiso   1.00
H411   H     0.83699   0.25354   0.41038   0.00000  Uiso   1.00
H412   H     0.78421   0.16067   0.47793   0.00000  Uiso   1.00
H413   H     0.89817   0.25027   0.47186   0.00000  Uiso   1.00
H414   H     0.75814   0.32915   0.39363   0.00000  Uiso   1.00
H415   H     0.82522   0.43766   0.42845   0.00000  Uiso   1.00
H416   H     0.71593   0.36500   0.45812   0.00000  Uiso   1.00
H417   H     0.81832   0.57215   0.26050   0.00000  Uiso   1.00
H418   H     0.71690   0.46854   0.27069   0.00000  Uiso   1.00
H419   H     0.80996   0.48876   0.32055   0.00000  Uiso   1.00
H420   H     0.76442   0.68451   0.26701   0.00000  Uiso   1.00
H421   H     0.75176   0.72369   0.34733   0.00000  Uiso   1.00
H422   H     0.66144   0.63649   0.30216   0.00000  Uiso   1.00
H423   H     0.73224   0.33587   0.59311   0.00000  Uiso   1.00
H424   H     0.75667   0.24182   0.60919   0.00000  Uiso   1.00
H425   H     0.66994   0.23079   0.54891   0.00000  Uiso   1.00
H426   H     0.60301   0.46873   0.35458   0.00000  Uiso   1.00
H427   H     0.62842   0.54675   0.42082   0.00000  Uiso   1.00
H428   H     0.65928   0.45691   0.42836   0.00000  Uiso   1.00
H429   H     0.66885   0.59623   0.18896   0.00000  Uiso   1.00
H430   H     0.69269   0.51213   0.16989   0.00000  Uiso   1.00
H431   H     0.64171   0.54918   0.10824   0.00000  Uiso   1.00
H432   H     0.88654   0.67170   0.01801   0.00000  Uiso   1.00
H433   H     0.77685   0.60577   0.00018   0.00000  Uiso   1.00
H434   H     0.82474   0.55231   0.04896   0.00000  Uiso   1.00
H435   H     0.77619   0.79270   0.12598   0.00000  Uiso   1.00
H436   H     0.76121   0.75586   0.04212   0.00000  Uiso   1.00
H437   H     0.86400   0.81426   0.06867   0.00000  Uiso   1.00
H438   H     0.70995   0.67981   0.47542   0.00000  Uiso   1.00
H439   H     0.80892   0.78238   0.47617   0.00000  Uiso   1.00
H440   H     0.77872   0.73815   0.55349   0.00000  Uiso   1.00
H441   H     0.80908   0.62477   0.80527   0.00000  Uiso   1.00
H442   H     0.88101   0.72801   0.83754   0.00000  Uiso   1.00
H443   H     0.87437   0.61691   0.86932   0.00000  Uiso   1.00
H444   H     0.82693   0.84392   0.85437   0.00000  Uiso   1.00
H445   H     0.73593   0.73738   0.82952   0.00000  Uiso   1.00
H446   H     0.72413   0.78330   0.90323   0.00000  Uiso   1.00
H447   H     0.62455   0.83997   0.90777   0.00000  Uiso   1.00
H448   H     0.55562   0.81375   0.83927   0.00000  Uiso   1.00
H449   H     0.62638   0.93099   0.86360   0.00000  Uiso   1.00
H450   H     0.39443   0.87797   1.19131   0.00000  Uiso   1.00
H451   H     0.32804   0.75317   1.17421   0.00000  Uiso   1.00
H452   H     0.31363   0.83504   1.12814   0.00000  Uiso   1.00
H453   H     0.86056   0.86372   0.68521   0.00000  Uiso   1.00
H454   H     0.83838   0.77932   0.74815   0.00000  Uiso   1.00
H455   H     0.80442   0.74065   0.66472   0.00000  Uiso   1.00
H456   H     1.02169   0.90505   0.77076   0.00000  Uiso   1.00
H457   H     1.04902   0.97577   0.69621   0.00000  Uiso   1.00
H458   H     1.10842   0.92458   0.72189   0.00000  Uiso   1.00
H459   H     0.92677   0.95180   0.77765   0.00000  Uiso   1.00
H460   H     1.00929   1.06590   0.77182   0.00000  Uiso   1.00
H461   H     0.93550   1.01770   0.70297   0.00000  Uiso   1.00
loop_
_geom_bond_atom_site_label_1
_geom_bond_atom_site_label_2
_geom_bond_distance
_geom_bond_site_symmetry_2
_ccdc_geom_bond_type
Si1    C52     1.837   .     S
Si1    C53     1.850   .     S
Si1    O80     1.594   1_545 S
Si1    O83     1.594   1_545 S
Si2    C54     1.852   .     S
Si2    C55     1.879   .     S
Si2    C56     1.852   1_455 S
Si2    O144    1.619   1_455 S
Si3    C57     1.877   .     S
Si3    C58     1.828   .     S
Si3    O88     1.629   1_545 S
Si3    O91     1.549   1_545 S
Si4    O60     1.534   .     S
Si4    O63     1.612   .     S
Si4    O152    1.577   1_455 S
Si4    O159    1.633   1_455 S
Si5    C59     1.817   .     S
Si5    C67     1.872   .     S
Si5    O147    1.645   1_455 S
Si5    O155    1.576   1_455 S
Si6    O60     1.615   .     S
Si6    C61     1.835   .     S
Si6    C62     1.832   .     S
Si6    O69     1.590   .     S
Si7    O63     1.607   .     S
Si7    C64     1.818   .     S
Si7    C65     1.910   .     S
Si7    C66     1.920   .     S
Si8    O73     1.590   .     S
Si8    O85     1.689   .     S
Si8    O164    1.564   1_455 S
Si8    O174    1.644   1_455 S
Si9    C68     1.807   .     S
Si9    O69     1.559   .     S
Si9    O74     1.630   .     S
Si9    O127    1.606   .     S
Si10   C70     1.812   .     S
Si10   C71     1.909   .     S
Si10   C72     1.870   1_455 S
Si10   O173    1.597   1_455 S
Si11   O73     1.572   .     S
Si11   O74     1.615   .     S
Si11   C75     1.810   .     S
Si11   C76     1.908   .     S
Si12   C77     1.914   .     S
Si12   C78     1.917   .     S
Si12   C79     1.888   .     S
Si12   O82     1.623   .     S
Si13   O80     1.578   .     S
Si13   O89     1.621   .     S
Si13   C81     1.829   1_455 S
Si13   O180    1.599   1_455 S
Si14   O82     1.590   .     S
Si14   O83     1.607   .     S
Si14   C84     1.897   1_554 S
Si14   O93     1.629   1_554 S
Si15   O85     1.629   .     S
Si15   C86     1.911   .     S
Si15   C87     1.822   .     S
Si15   O90     1.626   .     S
Si16   O88     1.547   .     S
Si16   O96     1.605   .     S
Si16   O184    1.591   1_455 S
Si16   O193    1.588   1_455 S
Si17   O89     1.622   .     S
Si17   O90     1.629   .     S
Si17   O91     1.529   .     S
Si17   C92     1.900   .     S
Si18   O93     1.625   .     S
Si18   C94     1.848   .     S
Si18   C95     1.851   1_455 S
Si18   O187    1.616   1_455 S
Si19   O96     1.619   .     S
Si19   C97     1.838   .     S
Si19   C98     1.798   .     S
Si19   C99     1.867   .     S
Si20   C100    1.857   .     S
Si20   O102    1.639   .     S
Si20   C101    1.836   1_545 S
Si20   O136    1.601   1_545 S
Si21   O102    1.550   .     S
Si21   O112    1.617   .     S
Si21   O109    1.610   1_554 S
Si21   O158    1.614   1_554 S
Si22   C103    1.915   .     S
Si22   C104    1.893   .     S
Si22   C105    1.958   .     S
Si22   O121    1.600   .     S
Si23   C106    1.894   .     S
Si23   O156    1.603   .     S
Si23   C107    1.826   1_545 S
Si23   O142    1.651   1_545 S
Si24   C108    1.907   .     S
Si24   O109    1.547   .     S
Si24   C110    1.790   .     S
Si24   C123    1.820   .     S
Si25   C111    1.894   .     S
Si25   O112    1.590   .     S
Si25   C113    1.857   .     S
Si25   C117    1.857   .     S
Si26   C114    1.869   .     S
Si26   C115    1.916   .     S
Si26   C116    1.908   .     S
Si26   O132    1.566   .     S
Si27   C118    1.841   .     S
Si27   O133    1.595   .     S
Si27   C119    1.853   1_554 S
Si27   O128    1.619   1_554 S
Si28   C120    1.812   .     S
Si28   O121    1.605   .     S
Si28   C122    1.855   .     S
Si28   O165    1.608   .     S
Si29   C124    1.943   .     S
Si29   C125    1.859   .     S
Si29   C126    1.893   .     S
Si29   O131    1.583   .     S
Si30   O127    1.614   .     S
Si30   O128    1.554   .     S
Si30   C129    1.783   .     S
Si30   O138    1.625   .     S
Si31   C130    1.855   .     S
Si31   O131    1.599   .     S
Si31   O139    1.608   .     S
Si31   O166    1.610   .     S
Si32   O132    1.621   .     S
Si32   O133    1.601   .     S
Si32   C134    1.937   .     S
Si32   O135    1.530   .     S
Si33   O135    1.604   .     S
Si33   O136    1.610   .     S
Si33   C137    1.824   1_554 S
Si33   C192    1.838   1_554 S
Si34   O138    1.638   .     S
Si34   O139    1.609   .     S
Si34   O141    1.577   .     S
Si34   O188    1.642   .     S
Si35   C140    1.838   .     S
Si35   O141    1.595   .     S
Si35   O142    1.579   .     S
Si35   C143    1.892   .     S
Si36   O144    1.600   .     S
Si36   C148    1.819   .     S
Si36   C145    1.823   1_545 S
Si36   C146    1.893   1_545 S
Si37   C149    1.864   .     S
Si37   C150    1.933   .     S
Si37   O147    1.607   1_554 S
Si37   O157    1.649   1_554 S
Si38   C151    1.867   .     S
Si38   O152    1.576   .     S
Si38   C153    1.862   1_545 S
Si38   C154    1.954   1_545 S
Si39   O155    1.585   .     S
Si39   O161    1.605   .     S
Si39   O190    1.572   1_545 S
Si39   C197    1.840   1_545 S
Si40   O156    1.615   .     S
Si40   O157    1.615   .     S
Si40   O158    1.614   .     S
Si40   O171    1.568   .     S
Si41   O159    1.604   .     S
Si41   C160    1.805   .     S
Si41   O161    1.579   .     S
Si41   O172    1.614   .     S
Si42   C162    1.899   .     S
Si42   C163    1.843   .     S
Si42   O164    1.579   .     S
Si42   C169    1.811   .     S
Si43   O165    1.645   .     S
Si43   O166    1.643   .     S
Si43   O175    1.612   .     S
Si43   O181    1.620   .     S
Si44   C167    1.802   .     S
Si44   C168    1.845   .     S
Si44   C170    1.744   .     S
Si44   O182    1.610   .     S
Si45   O171    1.597   .     S
Si45   O172    1.545   .     S
Si45   O173    1.616   .     S
Si45   O176    1.549   .     S
Si46   O174    1.638   .     S
Si46   O175    1.611   .     S
Si46   O176    1.619   .     S
Si46   O186    1.629   .     S
Si47   C177    1.880   .     S
Si47   C178    1.880   .     S
Si47   C179    1.822   .     S
Si47   O180    1.605   .     S
Si48   O181    1.597   .     S
Si48   O182    1.588   .     S
Si48   C183    1.876   .     S
Si48   O184    1.629   .     S
Si49   C185    1.877   .     S
Si49   O186    1.574   .     S
Si49   O187    1.621   .     S
Si49   O195    1.648   .     S
Si50   O188    1.552   .     S
Si50   C189    1.922   .     S
Si50   O190    1.537   .     S
Si50   C191    1.853   .     S
Si51   O193    1.594   .     S
Si51   C194    1.863   .     S
Si51   O195    1.578   .     S
Si51   C196    1.813   .     S
C52    H198    1.071   .     S
C52    H199    1.126   .     S
C52    H200    1.108   .     S
C53    H201    1.129   .     S
C53    H202    1.152   .     S
C53    H203    1.155   .     S
C54    H204    1.118   .     S
C54    H205    1.129   .     S
C54    H206    1.073   .     S
C55    H207    1.100   .     S
C55    H208    1.125   .     S
C55    H209    1.180   .     S
C56    H210    1.130   .     S
C56    H211    1.122   .     S
C56    H212    1.094   .     S
C56    Si2     1.852   1_655 S
C57    H213    1.047   .     S
C57    H214    1.130   .     S
C57    H215    1.149   .     S
C58    H216    1.077   .     S
C58    H217    1.152   .     S
C58    H218    1.127   .     S
C59    H219    1.099   .     S
C59    H220    1.094   .     S
C59    H221    1.095   .     S
C61    H222    1.120   .     S
C61    H223    1.109   .     S
C61    H224    1.056   .     S
C62    H225    1.118   .     S
C62    H226    1.086   .     S
C62    H227    1.092   .     S
C64    H228    1.108   .     S
C64    H229    1.149   .     S
C64    H230    1.105   .     S
C65    H231    1.093   .     S
C65    H232    1.081   .     S
C65    H233    1.145   .     S
C66    H234    1.132   .     S
C66    H235    1.147   .     S
C66    H236    1.074   .     S
C67    H237    1.082   .     S
C67    H238    1.082   .     S
C67    H239    1.128   .     S
C68    H240    1.156   .     S
C68    H241    1.071   .     S
C68    H242    1.158   .     S
C70    H243    1.144   .     S
C70    H244    1.089   .     S
C70    H245    1.148   .     S
C71    H246    1.115   .     S
C71    H247    1.078   .     S
C71    H248    1.123   .     S
C72    H249    1.115   .     S
C72    H250    1.117   .     S
C72    H251    1.082   .     S
C72    Si10    1.870   1_655 S
C75    H252    1.154   .     S
C75    H253    1.096   .     S
C75    H254    1.092   .     S
C76    H255    1.069   .     S
C76    H256    1.090   .     S
C76    H257    1.073   .     S
C77    H258    1.131   .     S
C77    H259    1.151   .     S
C77    H260    1.097   .     S
C78    H261    1.109   .     S
C78    H262    1.106   .     S
C78    H263    1.084   .     S
C79    H264    1.163   .     S
C79    H265    1.122   .     S
C79    H266    1.059   .     S
O80    Si1     1.594   1_565 S
C81    H267    1.094   .     S
C81    H268    1.103   .     S
C81    H269    1.113   .     S
C81    Si13    1.829   1_655 S
O83    Si1     1.594   1_565 S
C84    H270    1.128   .     S
C84    H271    1.081   .     S
C84    H272    1.093   .     S
C84    Si14    1.897   1_556 S
C86    H273    1.035   .     S
C86    H274    1.132   .     S
C86    H275    1.079   .     S
C87    H276    1.106   .     S
C87    H277    1.092   .     S
C87    H278    1.108   .     S
O88    Si3     1.629   1_565 S
O91    Si3     1.549   1_565 S
C92    H279    1.071   .     S
C92    H280    1.093   .     S
C92    H281    1.086   .     S
O93    Si14    1.629   1_556 S
C94    H282    1.086   .     S
C94    H283    1.122   .     S
C94    H284    1.074   .     S
C95    H285    1.079   .     S
C95    H286    1.146   .     S
C95    H287    1.098   .     S
C95    Si18    1.851   1_655 S
C97    H288    1.097   .     S
C97    H289    1.149   .     S
C97    H290    1.089   .     S
C98    H291    1.131   .     S
C98    H292    1.080   .     S
C98    H293    1.128   .     S
C99    H294    1.056   .     S
C99    H295    1.086   .     S
C99    H296    1.138   .     S
C100   H297    1.095   .     S
C100   H298    1.122   .     S
C100   H299    1.056   .     S
C101   H300    1.085   .     S
C101   H301    1.068   .     S
C101   H302    1.117   .     S
C101   Si20    1.836   1_565 S
C103   H303    1.117   .     S
C103   H304    1.151   .     S
C103   H305    1.130   .     S
C104   H306    1.134   .     S
C104   H307    1.078   .     S
C104   H308    1.117   .     S
C105   H309    1.078   .     S
C105   H310    1.135   .     S
C105   H311    1.089   .     S
C106   H312    1.154   .     S
C106   H313    1.091   .     S
C106   H314    1.100   .     S
C107   H315    1.089   .     S
C107   H316    1.126   .     S
C107   H317    1.137   .     S
C107   Si23    1.826   1_565 S
C108   H318    1.138   .     S
C108   H319    1.091   .     S
C108   H320    1.107   .     S
O109   Si21    1.610   1_556 S
C110   H321    1.126   .     S
C110   H322    1.092   .     S
C110   H323    1.134   .     S
C111   H324    1.108   .     S
C111   H325    1.136   .     S
C111   H326    1.101   .     S
C113   H327    1.116   .     S
C113   H328    1.152   .     S
C113   H329    1.048   .     S
C114   H330    1.086   .     S
C114   H331    1.132   .     S
C114   H332    1.119   .     S
C115   H333    1.095   .     S
C115   H334    1.135   .     S
C115   H335    1.058   .     S
C116   H336    1.119   .     S
C116   H337    1.130   .     S
C116   H338    1.098   .     S
C117   H339    1.096   .     S
C117   H340    1.135   .     S
C117   H341    1.092   .     S
C118   H342    1.109   .     S
C118   H343    1.103   .     S
C118   H344    1.101   .     S
C119   H345    1.093   .     S
C119   H346    1.073   .     S
C119   H347    1.093   .     S
C119   Si27    1.853   1_556 S
C120   H348    1.110   .     S
C120   H349    1.127   .     S
C120   H350    1.110   .     S
C122   H351    1.124   .     S
C122   H352    1.131   .     S
C122   H353    1.066   .     S
C123   H354    1.126   .     S
C123   H355    1.133   .     S
C123   H356    1.104   .     S
C124   H357    1.122   .     S
C124   H358    1.069   .     S
C124   H359    1.082   .     S
C125   H360    1.049   .     S
C125   H361    1.111   .     S
C125   H362    1.119   .     S
C126   H363    1.167   .     S
C126   H364    1.112   .     S
C126   H365    1.064   .     S
O128   Si27    1.619   1_556 S
C129   H366    1.040   .     S
C129   H367    1.097   .     S
C129   H368    1.123   .     S
C130   H369    1.009   .     S
C130   H370    1.088   .     S
C130   H371    1.143   .     S
C134   H372    1.122   .     S
C134   H373    1.117   .     S
C134   H374    1.083   .     S
O136   Si20    1.601   1_565 S
C137   H375    1.125   .     S
C137   H376    1.054   .     S
C137   H377    1.108   .     S
C137   Si33    1.824   1_556 S
C140   H378    1.138   .     S
C140   H379    1.092   .     S
C140   H380    1.081   .     S
O142   Si23    1.651   1_565 S
C143   H381    1.100   .     S
C143   H382    1.119   .     S
C143   H383    1.134   .     S
O144   Si2     1.619   1_655 S
C145   H384    1.131   .     S
C145   H385    1.142   .     S
C145   H386    1.090   .     S
C145   Si36    1.823   1_565 S
C146   H387    1.128   .     S
C146   H388    1.104   .     S
C146   H389    1.102   .     S
C146   Si36    1.893   1_565 S
O147   Si5     1.645   1_655 S
O147   Si37    1.607   1_556 S
C148   H390    1.109   .     S
C148   H391    1.075   .     S
C148   H392    1.140   .     S
C149   H393    1.162   .     S
C149   H394    1.124   .     S
C149   H395    1.094   .     S
C150   H396    1.103   .     S
C150   H397    1.045   .     S
C150   H398    1.084   .     S
C151   H399    1.109   .     S
C151   H400    1.061   .     S
C151   H401    1.156   .     S
O152   Si4     1.577   1_655 S
C153   H402    1.112   .     S
C153   H403    1.089   .     S
C153   H404    1.069   .     S
C153   Si38    1.862   1_565 S
C154   H405    1.078   .     S
C154   H406    1.104   .     S
C154   H407    1.146   .     S
C154   Si38    1.954   1_565 S
O155   Si5     1.576   1_655 S
O157   Si37    1.649   1_556 S
O158   Si21    1.614   1_556 S
O159   Si4     1.633   1_655 S
C160   H408    1.124   .     S
C160   H409    1.095   .     S
C160   H410    1.132   .     S
C162   H411    1.112   .     S
C162   H412    1.105   .     S
C162   H413    1.177   .     S
C163   H414    1.102   .     S
C163   H415    1.093   .     S
C163   H416    1.103   .     S
O164   Si8     1.564   1_655 S
C167   H417    1.177   .     S
C167   H418    1.107   .     S
C167   H419    1.076   .     S
C168   H420    1.111   .     S
C168   H421    1.128   .     S
C168   H422    1.105   .     S
C169   H423    1.089   .     S
C169   H424    1.116   .     S
C169   H425    1.169   .     S
C170   H426    1.161   .     S
C170   H427    1.077   .     S
C170   H428    1.100   .     S
O173   Si10    1.597   1_655 S
O174   Si8     1.644   1_655 S
C177   H429    1.047   .     S
C177   H430    1.072   .     S
C177   H431    1.094   .     S
C178   H432    1.178   .     S
C178   H433    1.118   .     S
C178   H434    1.104   .     S
C179   H435    1.124   .     S
C179   H436    1.103   .     S
C179   H437    1.147   .     S
O180   Si13    1.599   1_655 S
C183   H438    1.115   .     S
C183   H439    1.087   .     S
C183   H440    1.105   .     S
O184   Si16    1.591   1_655 S
C185   H441    1.067   .     S
C185   H442    1.130   .     S
C185   H443    1.102   .     S
O187   Si18    1.616   1_655 S
C189   H444    1.136   .     S
C189   H445    1.108   .     S
C189   H446    1.117   .     S
O190   Si39    1.572   1_565 S
C191   H447    1.103   .     S
C191   H448    1.100   .     S
C191   H449    1.104   .     S
C192   H450    1.100   .     S
C192   H451    1.079   .     S
C192   H452    1.117   .     S
C192   Si33    1.838   1_556 S
O193   Si16    1.588   1_655 S
C194   H453    1.072   .     S
C194   H454    1.108   .     S
C194   H455    1.147   .     S
C196   H456    1.062   .     S
C196   H457    1.109   .     S
C196   H458    1.086   .     S
C197   H459    1.119   .     S
C197   H460    1.090   .     S
C197   H461    1.167   .     S
C197   Si39    1.840   1_565 S
