data_333-9-11-16-15-30-2
_audit_creation_date              2025-03-07
_audit_creation_method            'Materials Studio'
_symmetry_space_group_name_H-M    'P1'
_symmetry_Int_Tables_number       1
_symmetry_cell_setting            triclinic
loop_
_symmetry_equiv_pos_as_xyz
  x,y,z
_cell_length_a                    15.5661
_cell_length_b                    15.1003
_cell_length_c                    23.4396
_cell_angle_alpha                 91.7989
_cell_angle_beta                  87.8201
_cell_angle_gamma                 117.5497
loop_
_atom_site_label
_atom_site_type_symbol
_atom_site_fract_x
_atom_site_fract_y
_atom_site_fract_z
_atom_site_U_iso_or_equiv
_atom_site_adp_type
_atom_site_occupancy
Si1    Si    0.14573  -0.03929   0.13660   0.00000  Uiso   1.00
Si2    Si    0.14024   0.10511   0.04923   0.00000  Uiso   1.00
Si3    Si    0.11450  -0.13448   0.42971   0.00000  Uiso   1.00
Si4    Si    0.05887  -0.08834   0.70082   0.00000  Uiso   1.00
Si5    Si    0.24983  -0.01378   0.86810   0.00000  Uiso   1.00
Si6    Si   -0.04456   0.09653   0.99028   0.00000  Uiso   1.00
Si7    Si    0.19899   0.08845   0.77072   0.00000  Uiso   1.00
Si8    Si   -0.04207   0.45705   0.20279   0.00000  Uiso   1.00
Si9    Si    0.13586   0.51488   0.04405   0.00000  Uiso   1.00
Si10   Si    0.11398   0.45941   0.80471   0.00000  Uiso   1.00
Si11   Si    0.08625   0.47330   0.67774   0.00000  Uiso   1.00
Si12   Si    0.14415   0.64722   0.14666   0.00000  Uiso   1.00
Si13   Si   -0.07208   0.83920   0.17152   0.00000  Uiso   1.00
Si14   Si    0.12775   0.78800   0.06290   0.00000  Uiso   1.00
Si15   Si    0.37239   0.98427   0.60224   0.00000  Uiso   1.00
Si16   Si    0.14473   0.78212   0.31298   0.00000  Uiso   1.00
Si17   Si    0.45427  -0.04152   0.14905   0.00000  Uiso   1.00
Si18   Si    0.30933   0.10513   0.21226   0.00000  Uiso   1.00
Si19   Si    0.45191   0.09286   0.06262   0.00000  Uiso   1.00
Si20   Si    0.49961  -0.01766   0.37274   0.00000  Uiso   1.00
Si21   Si    0.47246   0.12187   0.28872   0.00000  Uiso   1.00
Si22   Si    0.86985   0.05228   0.51462   0.00000  Uiso   1.00
Si23   Si    0.31621   0.10632   0.97824   0.00000  Uiso   1.00
Si24   Si    0.45699   0.26860   0.13808   0.00000  Uiso   1.00
Si25   Si    0.26435   0.40378   0.27184   0.00000  Uiso   1.00
Si26   Si    0.48641   0.62914  -0.12486   0.00000  Uiso   1.00
Si27   Si    0.43965   0.25776   0.38366   0.00000  Uiso   1.00
Si28   Si    0.31534   0.58490   0.50856   0.00000  Uiso   1.00
Si29   Si    0.44543   0.44888   0.33993   0.00000  Uiso   1.00
Si30   Si    0.39359   0.31735   0.93789   0.00000  Uiso   1.00
Si31   Si    0.32694   0.50505   0.79414   0.00000  Uiso   1.00
Si32   Si    0.30530   0.79980   0.22955   0.00000  Uiso   1.00
Si33   Si    0.43635   0.63125   0.40286   0.00000  Uiso   1.00
Si34   Si    0.51108   0.99581   0.50174   0.00000  Uiso   1.00
Si35   Si    0.44631   0.78037   0.31122   0.00000  Uiso   1.00
Si36   Si    0.65311   0.91186   0.65826   0.00000  Uiso   1.00
Si37   Si    0.64777   0.91846   0.52943   0.00000  Uiso   1.00
Si38   Si    0.63648   0.14214   0.20378   0.00000  Uiso   1.00
Si39   Si    0.80845   0.15273   0.05136   0.00000  Uiso   1.00
Si40   Si    0.85126  -0.10111   0.92705   0.00000  Uiso   1.00
Si41   Si    0.62907   0.12237   0.98353   0.00000  Uiso   1.00
Si42   Si    0.79270   0.30646   0.12663   0.00000  Uiso   1.00
Si43   Si    0.92406   0.39446   0.41912   0.00000  Uiso   1.00
Si44   Si    0.85554   0.45716   0.31741   0.00000  Uiso   1.00
Si45   Si    0.72076   0.49583   0.64059   0.00000  Uiso   1.00
Si46   Si    0.52736   0.52876   0.97456   0.00000  Uiso   1.00
Si47   Si    0.75287   0.45720   0.76331   0.00000  Uiso   1.00
Si48   Si    0.58557   0.75308   0.23046   0.00000  Uiso   1.00
Si49   Si    0.62259   0.72213   0.46740   0.00000  Uiso   1.00
Si50   Si    0.93200   0.98317   0.26760   0.00000  Uiso   1.00
Si51   Si    0.77620   1.10940   0.71351   0.00000  Uiso   1.00
O52    O     0.13030   0.04676   0.10787   0.00000  Uiso   1.00
C53    C     0.18286   0.23288   0.07776   0.00000  Uiso   1.00
C54    C     0.11496  -0.01487   0.45005   0.00000  Uiso   1.00
C55    C     0.21412  -0.15023   0.46544   0.00000  Uiso   1.00
C56    C    -0.01082   0.76142   0.44713   0.00000  Uiso   1.00
C57    C     0.06270  -0.19799   0.73106   0.00000  Uiso   1.00
C58    C     1.04855  -0.09506   0.62337   0.00000  Uiso   1.00
C59    C     0.94377  -0.09520   0.73353   0.00000  Uiso   1.00
C60    C     0.16278   0.86633   0.89858   0.00000  Uiso   1.00
C61    C     0.33688   0.96620   0.82007   0.00000  Uiso   1.00
O62    O     0.03616   0.07833   1.02476   0.00000  Uiso   1.00
O63    O     0.15155   0.01100   0.72063   0.00000  Uiso   1.00
O64    O     0.19606   0.02938   0.82810   0.00000  Uiso   1.00
C65    C     0.32858   0.17018   0.75184   0.00000  Uiso   1.00
C66    C    -0.00813   0.35924   0.22641   0.00000  Uiso   1.00
C67    C     0.08415   0.39143   0.07463   0.00000  Uiso   1.00
C68    C     0.04173   0.51811   1.00199   0.00000  Uiso   1.00
C69    C     0.01787   0.16846   0.92604   0.00000  Uiso   1.00
C70    C     0.13958   0.58861   0.82893   0.00000  Uiso   1.00
C71    C     0.13834   0.16874   0.78077   0.00000  Uiso   1.00
C72    C     0.02041   0.36885   0.85427   0.00000  Uiso   1.00
C73    C    -0.02952   0.42020   0.64769   0.00000  Uiso   1.00
O74    O     0.06887   0.43982   0.74108   0.00000  Uiso   1.00
C75    C     0.14503   0.61550   0.67355   0.00000  Uiso   1.00
O76    O     0.05480   0.55548   0.18143   0.00000  Uiso   1.00
O77    O     0.17387   0.59605   0.09604   0.00000  Uiso   1.00
O78    O     0.04753   0.88544   0.16993   0.00000  Uiso   1.00
C79    C     0.89104   0.87258   0.10674   0.00000  Uiso   1.00
O80    O     0.10757   0.71743   0.11718   0.00000  Uiso   1.00
O81    O     0.16595   0.90024   0.08841   0.00000  Uiso   1.00
C82    C     0.01152   0.73176   1.02543   0.00000  Uiso   1.00
C83    C     0.22868   0.79410   1.01776   0.00000  Uiso   1.00
C84    C     0.47362   1.06979   0.64899   0.00000  Uiso   1.00
C85    C     0.30256   0.87277   0.64472   0.00000  Uiso   1.00
C86    C    -0.13268   0.69873   0.17173   0.00000  Uiso   1.00
C87    C     0.03759   0.74573   0.26586   0.00000  Uiso   1.00
C88    C     0.30081   1.04844   0.57876   0.00000  Uiso   1.00
C89    C     0.13491   0.66450   0.34530   0.00000  Uiso   1.00
O90    O     0.13565   0.85590   0.36133   0.00000  Uiso   1.00
C91    C     0.46802   0.86015   0.10533   0.00000  Uiso   1.00
O92    O     0.23193   0.01017   0.18086   0.00000  Uiso   1.00
C93    C     0.25792   0.14602   0.27148   0.00000  Uiso   1.00
O94    O     0.41478   0.01318   0.10912   0.00000  Uiso   1.00
C95    C     0.63158   0.05116   0.36554   0.00000  Uiso   1.00
O96    O     0.39322   0.08599   0.24006   0.00000  Uiso   1.00
O97    O     0.46153   0.03446   0.33025   0.00000  Uiso   1.00
C98    C     0.93006   0.06508   0.44236   0.00000  Uiso   1.00
C99    C     0.91841   1.17909   0.55319   0.00000  Uiso   1.00
O100   O     0.30834   0.06501   0.91426   0.00000  Uiso   1.00
O101   O     0.37449   0.07119   1.01636   0.00000  Uiso   1.00
O102   O     0.20765   0.07532   1.00689   0.00000  Uiso   1.00
O103   O     0.35721   0.19563   0.16908   0.00000  Uiso   1.00
O104   O     0.48559   0.20168   0.09409   0.00000  Uiso   1.00
C105   C     0.55305   0.34496   0.18997   0.00000  Uiso   1.00
C106   C     0.17622   0.31432   0.32724   0.00000  Uiso   1.00
C107   C     0.24198   0.35043   0.19969   0.00000  Uiso   1.00
C108   C     0.25114   0.52059   0.27710   0.00000  Uiso   1.00
C109   C     0.45486   0.36892   0.09280   0.00000  Uiso   1.00
C110   C     0.47532   0.74266  -0.09543   0.00000  Uiso   1.00
C111   C     0.56635   0.67721  -0.18739   0.00000  Uiso   1.00
C112   C     0.33734   0.15782   0.42463   0.00000  Uiso   1.00
O113   O     0.45886   0.21256   0.32380   0.00000  Uiso   1.00
C114   C     0.54394   0.30903   0.43054   0.00000  Uiso   1.00
C115   C     0.30600   0.45651   0.51417   0.00000  Uiso   1.00
C116   C     0.39447   0.67255   0.56616   0.00000  Uiso   1.00
C117   C     0.19858   0.59180   0.51831   0.00000  Uiso   1.00
C118   C     0.17099   0.42314   0.64187   0.00000  Uiso   1.00
O119   O     0.36652   0.41555   0.28943   0.00000  Uiso   1.00
O120   O     0.41687   0.34894   0.37384   0.00000  Uiso   1.00
C121   C     0.57182   0.48766   0.31369   0.00000  Uiso   1.00
O122   O     0.37372   0.22486   0.97624   0.00000  Uiso   1.00
C123   C     0.49179   0.33753   0.88067   0.00000  Uiso   1.00
C124   C     0.27977   0.28982   0.90788   0.00000  Uiso   1.00
O125   O     0.21450   0.45443   0.80977   0.00000  Uiso   1.00
O126   O     0.38492   0.54370   0.85249   0.00000  Uiso   1.00
C127   C     0.36796   0.61606   0.74532   0.00000  Uiso   1.00
C128   C     0.24404   0.53434   1.00175   0.00000  Uiso   1.00
O129   O     0.23980   0.71349   0.18439   0.00000  Uiso   1.00
O130   O     0.38155   0.89915   0.19905   0.00000  Uiso   1.00
O131   O     0.24148   0.83359   0.27121   0.00000  Uiso   1.00
O132   O     0.35491   0.62242   0.44861   0.00000  Uiso   1.00
O133   O     0.42966   0.52700   0.38184   0.00000  Uiso   1.00
O134   O     0.41955   0.95707   0.54669   0.00000  Uiso   1.00
O135   O     0.47209   0.99191   0.44013   0.00000  Uiso   1.00
C136   C     0.59823   1.12695   0.52278   0.00000  Uiso   1.00
O137   O     0.36058   0.75911   0.27048   0.00000  Uiso   1.00
O138   O     0.42382   0.68155   0.34677   0.00000  Uiso   1.00
O139   O     0.46194   0.86708   0.35391   0.00000  Uiso   1.00
C140   C     0.36637   0.41717   0.75500   0.00000  Uiso   1.00
C141   C     0.54099   0.88714   0.70306   0.00000  Uiso   1.00
C142   C     0.66972   0.80025   0.65808   0.00000  Uiso   1.00
O143   O     0.56426   0.93192   0.50113   0.00000  Uiso   1.00
O144   O     0.63880   0.93638   0.59619   0.00000  Uiso   1.00
O145   O     0.75514   1.00187   0.50913   0.00000  Uiso   1.00
O146   O     0.55955   0.03927   0.17112   0.00000  Uiso   1.00
C147   C     0.72540   0.10703   0.22947   0.00000  Uiso   1.00
O148   O     0.57165   0.15813   0.25784   0.00000  Uiso   1.00
O149   O     0.90393   0.14684   1.03216   0.00000  Uiso   1.00
C150   C     0.74031   0.02952   0.08585   0.00000  Uiso   1.00
C151   C     0.78794  -0.09207   0.85973   0.00000  Uiso   1.00
O152   O     0.87387  -0.01055   0.96998   0.00000  Uiso   1.00
C153   C     0.96197   0.88784   0.90287   0.00000  Uiso   1.00
C154   C     0.90696  -0.03005   0.55140   0.00000  Uiso   1.00
C155   C     0.58707  -0.00088   0.94027   0.00000  Uiso   1.00
O156   O     0.73903   0.15888   1.00237   0.00000  Uiso   1.00
O157   O     0.55046   0.09709   1.03721   0.00000  Uiso   1.00
O158   O     0.70007   0.24288   0.16940   0.00000  Uiso   1.00
O159   O     0.83065   0.23639   0.09897   0.00000  Uiso   1.00
C160   C     0.75017   0.36177   0.07163   0.00000  Uiso   1.00
O161   O     0.87510   0.40390   0.15680   0.00000  Uiso   1.00
C162   C     0.81556   0.26826   0.42442   0.00000  Uiso   1.00
C163   C     1.03977   0.38215   0.42829   0.00000  Uiso   1.00
C164   C     0.91413   0.47442   0.47572   0.00000  Uiso   1.00
O165   O     0.91228   0.48544   0.25754   0.00000  Uiso   1.00
C166   C     0.73797   0.34653   0.30533   0.00000  Uiso   1.00
O167   O     0.91970   0.44202   0.36142   0.00000  Uiso   1.00
C168   C     0.81736   0.55260   0.33933   0.00000  Uiso   1.00
C169   C     0.61943   0.21945   0.93789   0.00000  Uiso   1.00
C170   C     0.81944   0.58668   0.59237   0.00000  Uiso   1.00
C171   C     0.66335   0.37780   0.59926   0.00000  Uiso   1.00
C172   C     0.63328   0.54190   0.66238   0.00000  Uiso   1.00
O173   O     0.43643   0.42237   0.97314   0.00000  Uiso   1.00
C174   C     0.50858   0.59956   1.03472   0.00000  Uiso   1.00
C175   C     0.64667   0.52437   0.98182   0.00000  Uiso   1.00
O176   O     0.53526   0.58724   0.91700   0.00000  Uiso   1.00
C177   C     0.63957   0.33217   0.77324   0.00000  Uiso   1.00
C178   C     0.86211   0.45455   0.79781   0.00000  Uiso   1.00
O179   O     0.76682   0.47490   0.69499   0.00000  Uiso   1.00
C180   C     0.75829   0.56679   0.79786   0.00000  Uiso   1.00
C181   C     0.49164   0.63129   0.19627   0.00000  Uiso   1.00
C182   C     0.66177   0.83797   0.16788   0.00000  Uiso   1.00
O183   O     0.53634   0.80593   0.26976   0.00000  Uiso   1.00
O184   O     0.54000   0.70128   0.42291   0.00000  Uiso   1.00
C185   C     0.60158   0.60634   0.49758   0.00000  Uiso   1.00
C186   C     0.74016   0.75296   0.42484   0.00000  Uiso   1.00
O187   O     0.63692   0.80953   0.51488   0.00000  Uiso   1.00
O188   O     0.89704   0.88318   0.22596   0.00000  Uiso   1.00
C189   C     0.66209   0.73019   0.28207   0.00000  Uiso   1.00
C190   C     0.83114   0.99371   0.30354   0.00000  Uiso   1.00
C191   C     1.00630   0.97122   0.32132   0.00000  Uiso   1.00
C192   C     1.00333   1.09646   0.22244   0.00000  Uiso   1.00
O193   O     0.73734   1.00157   0.68593   0.00000  Uiso   1.00
C194   C     0.71674   1.09784   0.78817   0.00000  Uiso   1.00
C195   C     0.91035   1.16008   0.72072   0.00000  Uiso   1.00
C196   C     0.76654   0.77808   0.96601   0.00000  Uiso   1.00
C197   C     0.74845   1.19388   0.67085   0.00000  Uiso   1.00
H198   H     0.19848   0.28748   0.04256   0.00000  Uiso   1.00
H199   H     0.25097   0.25716   0.09979   0.00000  Uiso   1.00
H200   H     0.13073   0.24077   0.10843   0.00000  Uiso   1.00
H201   H     0.12541   0.02933   0.41203   0.00000  Uiso   1.00
H202   H     0.17729   0.02585   0.48076   0.00000  Uiso   1.00
H203   H     0.04328  -0.03622   0.47296   0.00000  Uiso   1.00
H204   H     0.27062  -0.07310   0.46936   0.00000  Uiso   1.00
H205   H     0.23572  -0.19914   0.44044   0.00000  Uiso   1.00
H206   H     0.18496  -0.19171   0.50648   0.00000  Uiso   1.00
H207   H    -0.02725   0.68390   0.42998   0.00000  Uiso   1.00
H208   H    -0.06814   0.77889   0.42906   0.00000  Uiso   1.00
H209   H    -0.02225   0.75700   0.49631   0.00000  Uiso   1.00
H210   H     0.01835  -0.26461   0.70502   0.00000  Uiso   1.00
H211   H     0.03705  -0.20445   0.77635   0.00000  Uiso   1.00
H212   H     0.14101  -0.18835   0.72800   0.00000  Uiso   1.00
H213   H     1.07505  -0.02145   0.60474   0.00000  Uiso   1.00
H214   H     0.96832  -0.14183   0.61295   0.00000  Uiso   1.00
H215   H     1.08965  -0.12812   0.60129   0.00000  Uiso   1.00
H216   H     0.93257  -0.02715   0.72442   0.00000  Uiso   1.00
H217   H     0.94373  -0.11386   0.77613   0.00000  Uiso   1.00
H218   H     0.88088  -0.15901   0.71101   0.00000  Uiso   1.00
H219   H     0.13511   0.87561   0.94139   0.00000  Uiso   1.00
H220   H     0.21134   0.83363   0.89862   0.00000  Uiso   1.00
H221   H     0.10166   0.83120   0.87015   0.00000  Uiso   1.00
H222   H     0.37010   0.92824   0.84128   0.00000  Uiso   1.00
H223   H     0.39004   1.03788   0.80420   0.00000  Uiso   1.00
H224   H     0.30196   0.92009   0.78385   0.00000  Uiso   1.00
H225   H     0.37135   0.12884   0.74215   0.00000  Uiso   1.00
H226   H     0.37115   0.21715   0.78771   0.00000  Uiso   1.00
H227   H     0.31987   0.21631   0.71816   0.00000  Uiso   1.00
H228   H     0.02789   0.38461   0.26915   0.00000  Uiso   1.00
H229   H     0.04176   0.35350   0.19170   0.00000  Uiso   1.00
H230   H    -0.07205   0.28688   0.22999   0.00000  Uiso   1.00
H231   H     0.07141   0.33493   0.03951   0.00000  Uiso   1.00
H232   H     0.02083   0.38472   0.09927   0.00000  Uiso   1.00
H233   H     0.13636   0.39244   0.10830   0.00000  Uiso   1.00
H234   H    -0.00635   0.53597   1.02969   0.00000  Uiso   1.00
H235   H    -0.00704   0.44680   0.97891   0.00000  Uiso   1.00
H236   H     0.07595   0.56613   0.96586   0.00000  Uiso   1.00
H237   H    -0.03890   0.16894   0.90116   0.00000  Uiso   1.00
H238   H     0.06319   0.13779   0.90470   0.00000  Uiso   1.00
H239   H     0.06573   0.24528   0.93945   0.00000  Uiso   1.00
H240   H     0.19266   0.64311   0.80019   0.00000  Uiso   1.00
H241   H     0.17531   0.60572   0.87249   0.00000  Uiso   1.00
H242   H     0.07311   0.59758   0.83656   0.00000  Uiso   1.00
H243   H     0.15159   0.21569   0.74266   0.00000  Uiso   1.00
H244   H     0.16578   0.22821   0.81301   0.00000  Uiso   1.00
H245   H     0.06425   0.12859   0.79258   0.00000  Uiso   1.00
H246   H    -0.04178   0.38598   0.85618   0.00000  Uiso   1.00
H247   H     0.05000   0.36514   0.89555   0.00000  Uiso   1.00
H248   H    -0.01040   0.30076   0.83278   0.00000  Uiso   1.00
H249   H    -0.02633   0.45951   0.60905   0.00000  Uiso   1.00
H250   H    -0.07613   0.44412   0.67582   0.00000  Uiso   1.00
H251   H    -0.05998   0.33717   0.64208   0.00000  Uiso   1.00
H252   H     0.12890   0.65099   0.71055   0.00000  Uiso   1.00
H253   H     0.10664   0.62932   0.63682   0.00000  Uiso   1.00
H254   H     0.22325   0.64429   0.67040   0.00000  Uiso   1.00
H255   H     0.81618   0.82389   0.09371   0.00000  Uiso   1.00
H256   H     0.94494   0.88312   0.07239   0.00000  Uiso   1.00
H257   H     0.89413   0.94787   0.11637   0.00000  Uiso   1.00
H258   H    -0.00024   0.67227   0.99724   0.00000  Uiso   1.00
H259   H    -0.00528   0.78533   1.00404   0.00000  Uiso   1.00
H260   H    -0.04767   0.70110   1.05826   0.00000  Uiso   1.00
H261   H     0.26768   0.87323   1.00249   0.00000  Uiso   1.00
H262   H     0.20721   0.74537   0.98071   0.00000  Uiso   1.00
H263   H     0.27736   0.77613   1.04032   0.00000  Uiso   1.00
H264   H     0.53501   1.04799   0.64400   0.00000  Uiso   1.00
H265   H     0.44533   1.05207   0.69331   0.00000  Uiso   1.00
H266   H     0.50672   1.15247   0.64048   0.00000  Uiso   1.00
H267   H     0.33124   0.81840   0.64790   0.00000  Uiso   1.00
H268   H     0.22706   0.83375   0.62830   0.00000  Uiso   1.00
H269   H     0.29566   0.89778   0.68764   0.00000  Uiso   1.00
H270   H    -0.19721   0.66642   0.14599   0.00000  Uiso   1.00
H271   H    -0.16285   0.66835   0.21613   0.00000  Uiso   1.00
H272   H    -0.08162   0.67131   0.15352   0.00000  Uiso   1.00
H273   H     0.00584   0.79394   0.27705   0.00000  Uiso   1.00
H274   H    -0.01621   0.67313   0.27053   0.00000  Uiso   1.00
H275   H     0.06161   0.75420   0.22012   0.00000  Uiso   1.00
H276   H     0.27902   1.07939   0.61448   0.00000  Uiso   1.00
H277   H     0.23783   0.99283   0.55435   0.00000  Uiso   1.00
H278   H     0.34930   1.10486   0.54822   0.00000  Uiso   1.00
H279   H     0.06723   0.63213   0.37267   0.00000  Uiso   1.00
H280   H     0.20145   0.68988   0.37229   0.00000  Uiso   1.00
H281   H     0.13107   0.61126   0.31365   0.00000  Uiso   1.00
H282   H     0.53175   0.88587   0.07613   0.00000  Uiso   1.00
H283   H     0.40465   0.80717   0.07781   0.00000  Uiso   1.00
H284   H     0.48128   0.81239   0.13611   0.00000  Uiso   1.00
H285   H     0.18731   0.13697   0.25701   0.00000  Uiso   1.00
H286   H     0.31353   0.22739   0.27691   0.00000  Uiso   1.00
H287   H     0.25458   0.10539   0.30962   0.00000  Uiso   1.00
H288   H     0.64779   0.01412   0.33036   0.00000  Uiso   1.00
H289   H     0.66474   0.03862   0.40578   0.00000  Uiso   1.00
H290   H     0.65844   0.13246   0.35763   0.00000  Uiso   1.00
H291   H     0.90870   0.11077   0.41337   0.00000  Uiso   1.00
H292   H     0.90342  -0.01483   0.42299   0.00000  Uiso   1.00
H293   H     1.01052   0.10449   0.44410   0.00000  Uiso   1.00
H294   H     0.99626   1.21051   0.55825   0.00000  Uiso   1.00
H295   H     0.88778   1.15168   0.59762   0.00000  Uiso   1.00
H296   H     0.88739   1.22763   0.53822   0.00000  Uiso   1.00
H297   H     0.62644   0.37982   0.16958   0.00000  Uiso   1.00
H298   H     0.55791   0.30487   0.22914   0.00000  Uiso   1.00
H299   H     0.53835   0.40708   0.20112   0.00000  Uiso   1.00
H300   H     0.09919   0.28831   0.31527   0.00000  Uiso   1.00
H301   H     0.18814   0.35320   0.37111   0.00000  Uiso   1.00
H302   H     0.17636   0.24316   0.33062   0.00000  Uiso   1.00
H303   H     0.16495   0.32710   0.19061   0.00000  Uiso   1.00
H304   H     0.26126   0.29069   0.19822   0.00000  Uiso   1.00
H305   H     0.28645   0.41392   0.17584   0.00000  Uiso   1.00
H306   H     0.26130   0.53482   0.32238   0.00000  Uiso   1.00
H307   H     0.17744   0.50653   0.26742   0.00000  Uiso   1.00
H308   H     0.30863   0.58156   0.25113   0.00000  Uiso   1.00
H309   H     0.39503   0.32856   0.06154   0.00000  Uiso   1.00
H310   H     0.52608   0.41525   0.07077   0.00000  Uiso   1.00
H311   H     0.43520   0.41318   0.12450   0.00000  Uiso   1.00
H312   H     0.53339   0.81602  -0.11015   0.00000  Uiso   1.00
H313   H     0.47511   0.74719  -0.04635   0.00000  Uiso   1.00
H314   H     0.40481   0.73367  -0.11097   0.00000  Uiso   1.00
H315   H     0.63856   0.72043  -0.16924   0.00000  Uiso   1.00
H316   H     0.55491   0.72779  -0.21378   0.00000  Uiso   1.00
H317   H     0.55735   0.61346  -0.21339   0.00000  Uiso   1.00
H318   H     0.29216   0.18742   0.45000   0.00000  Uiso   1.00
H319   H     0.37025   0.12692   0.45238   0.00000  Uiso   1.00
H320   H     0.28365   0.09806   0.39875   0.00000  Uiso   1.00
H321   H     0.58336   0.26483   0.43004   0.00000  Uiso   1.00
H322   H     0.50949   0.31816   0.47101   0.00000  Uiso   1.00
H323   H     0.59837   0.38825   0.41580   0.00000  Uiso   1.00
H324   H     0.32591   0.45114   0.55947   0.00000  Uiso   1.00
H325   H     0.35627   0.44664   0.48550   0.00000  Uiso   1.00
H326   H     0.23468   0.39159   0.50258   0.00000  Uiso   1.00
H327   H     0.41063   0.75055   0.56043   0.00000  Uiso   1.00
H328   H     0.46235   0.66740   0.57114   0.00000  Uiso   1.00
H329   H     0.35295   0.65344   0.60799   0.00000  Uiso   1.00
H330   H     0.22077   0.67307   0.53324   0.00000  Uiso   1.00
H331   H     0.15598   0.53157   0.54923   0.00000  Uiso   1.00
H332   H     0.16430   0.58152   0.47608   0.00000  Uiso   1.00
H333   H     0.14475   0.38667   0.59815   0.00000  Uiso   1.00
H334   H     0.17113   0.37026   0.67127   0.00000  Uiso   1.00
H335   H     0.24371   0.48746   0.64404   0.00000  Uiso   1.00
H336   H     0.58626   0.52554   0.27293   0.00000  Uiso   1.00
H337   H     0.60026   0.43290   0.31646   0.00000  Uiso   1.00
H338   H     0.61216   0.53931   0.34853   0.00000  Uiso   1.00
H339   H     0.56311   0.37984   0.90485   0.00000  Uiso   1.00
H340   H     0.49614   0.38119   0.84297   0.00000  Uiso   1.00
H341   H     0.48465   0.26342   0.86817   0.00000  Uiso   1.00
H342   H     0.29215   0.35430   0.87899   0.00000  Uiso   1.00
H343   H     0.22253   0.27508   0.93932   0.00000  Uiso   1.00
H344   H     0.26633   0.22306   0.88232   0.00000  Uiso   1.00
H345   H     0.30788   0.58648   0.71568   0.00000  Uiso   1.00
H346   H     0.44179   0.63849   0.72402   0.00000  Uiso   1.00
H347   H     0.36999   0.68148   0.76951   0.00000  Uiso   1.00
H348   H     0.26500   0.47237   1.00810   0.00000  Uiso   1.00
H349   H     0.31102   0.60479   1.01417   0.00000  Uiso   1.00
H350   H     0.23088   0.52891   0.95587   0.00000  Uiso   1.00
H351   H     0.63890   1.13606   0.56384   0.00000  Uiso   1.00
H352   H     0.57142   1.18208   0.51787   0.00000  Uiso   1.00
H353   H     0.65868   1.15007   0.49420   0.00000  Uiso   1.00
H354   H     0.43589   0.42921   0.77490   0.00000  Uiso   1.00
H355   H     0.37602   0.43629   0.70945   0.00000  Uiso   1.00
H356   H     0.30307   0.34613   0.75553   0.00000  Uiso   1.00
H357   H     0.53681   0.95635   0.71592   0.00000  Uiso   1.00
H358   H     0.53399   0.84646   0.74083   0.00000  Uiso   1.00
H359   H     0.47430   0.83675   0.67712   0.00000  Uiso   1.00
H360   H     0.59895   0.73794   0.64856   0.00000  Uiso   1.00
H361   H     0.68620   0.78161   0.70014   0.00000  Uiso   1.00
H362   H     0.72378   0.80246   0.62826   0.00000  Uiso   1.00
H363   H     0.79122   0.13378   0.19771   0.00000  Uiso   1.00
H364   H     0.69450   0.02440   0.23193   0.00000  Uiso   1.00
H365   H     0.75730   0.15292   0.26736   0.00000  Uiso   1.00
H366   H     0.79082   0.02057   0.11612   0.00000  Uiso   1.00
H367   H     0.72250  -0.03252   0.05284   0.00000  Uiso   1.00
H368   H     0.67875   0.03230   0.10618   0.00000  Uiso   1.00
H369   H     0.83684  -0.02280   0.83382   0.00000  Uiso   1.00
H370   H     0.72233  -0.09136   0.87495   0.00000  Uiso   1.00
H371   H     0.78602  -0.15929   0.83372   0.00000  Uiso   1.00
H372   H     0.93936   0.81100   0.88374   0.00000  Uiso   1.00
H373   H     1.01588   0.90024   0.93638   0.00000  Uiso   1.00
H374   H     1.00173   0.94047   0.86634   0.00000  Uiso   1.00
H375   H     0.88870  -0.10301   0.53040   0.00000  Uiso   1.00
H376   H     0.87858  -0.03966   0.59596   0.00000  Uiso   1.00
H377   H     0.98710   0.01509   0.55076   0.00000  Uiso   1.00
H378   H     0.63618  -0.03431   0.94611   0.00000  Uiso   1.00
H379   H     0.58947   0.01674   0.89647   0.00000  Uiso   1.00
H380   H     0.51311  -0.05985   0.95642   0.00000  Uiso   1.00
H381   H     0.68420   0.29891   0.05297   0.00000  Uiso   1.00
H382   H     0.80670   0.39589   0.03791   0.00000  Uiso   1.00
H383   H     0.74388   0.42996   0.08702   0.00000  Uiso   1.00
H384   H     0.76267   0.28925   0.42767   0.00000  Uiso   1.00
H385   H     0.81608   0.22911   0.46183   0.00000  Uiso   1.00
H386   H     0.81661   0.22473   0.38615   0.00000  Uiso   1.00
H387   H     1.04563   0.37866   0.47575   0.00000  Uiso   1.00
H388   H     1.10240   0.45181   0.41354   0.00000  Uiso   1.00
H389   H     1.03245   0.31600   0.40592   0.00000  Uiso   1.00
H390   H     0.98771   0.52990   0.49037   0.00000  Uiso   1.00
H391   H     0.87460   0.42362   0.51245   0.00000  Uiso   1.00
H392   H     0.87184   0.51314   0.46372   0.00000  Uiso   1.00
H393   H     0.74899   0.28299   0.30878   0.00000  Uiso   1.00
H394   H     0.70468   0.34280   0.26190   0.00000  Uiso   1.00
H395   H     0.68486   0.33319   0.34044   0.00000  Uiso   1.00
H396   H     0.76416   0.52310   0.37513   0.00000  Uiso   1.00
H397   H     0.78757   0.57258   0.30104   0.00000  Uiso   1.00
H398   H     0.88592   0.61517   0.35574   0.00000  Uiso   1.00
H399   H     0.69278   0.25893   0.91648   0.00000  Uiso   1.00
H400   H     0.60392   0.26995   0.96253   0.00000  Uiso   1.00
H401   H     0.56906   0.17542   0.90436   0.00000  Uiso   1.00
H402   H     0.85334   0.66113   0.61615   0.00000  Uiso   1.00
H403   H     0.78463   0.59321   0.55366   0.00000  Uiso   1.00
H404   H     0.87441   0.56596   0.58020   0.00000  Uiso   1.00
H405   H     0.63798   0.38900   0.55783   0.00000  Uiso   1.00
H406   H     0.60764   0.31446   0.62296   0.00000  Uiso   1.00
H407   H     0.72225   0.35123   0.58961   0.00000  Uiso   1.00
H408   H     0.67669   0.62782   0.66640   0.00000  Uiso   1.00
H409   H     0.59678   0.50804   0.70407   0.00000  Uiso   1.00
H410   H     0.57973   0.51468   0.62838   0.00000  Uiso   1.00
H411   H     0.47413   0.64080   1.01977   0.00000  Uiso   1.00
H412   H     0.57822   0.64351   1.05393   0.00000  Uiso   1.00
H413   H     0.45695   0.54663   1.06587   0.00000  Uiso   1.00
H414   H     0.63890   0.45048   0.99140   0.00000  Uiso   1.00
H415   H     0.68779   0.56997   1.01863   0.00000  Uiso   1.00
H416   H     0.69714   0.55812   0.94425   0.00000  Uiso   1.00
H417   H     0.62991   0.30163   0.81422   0.00000  Uiso   1.00
H418   H     0.65325   0.27968   0.74352   0.00000  Uiso   1.00
H419   H     0.57561   0.33946   0.75700   0.00000  Uiso   1.00
H420   H     0.85456   0.45889   0.84428   0.00000  Uiso   1.00
H421   H     0.92486   0.51460   0.77653   0.00000  Uiso   1.00
H422   H     0.85949   0.38232   0.78755   0.00000  Uiso   1.00
H423   H     0.75819   0.55263   0.84513   0.00000  Uiso   1.00
H424   H     0.69910   0.58860   0.78242   0.00000  Uiso   1.00
H425   H     0.83160   0.63627   0.78821   0.00000  Uiso   1.00
H426   H     0.53718   0.59957   0.17292   0.00000  Uiso   1.00
H427   H     0.43919   0.63263   0.16889   0.00000  Uiso   1.00
H428   H     0.44560   0.57464   0.22873   0.00000  Uiso   1.00
H429   H     0.66964   0.79695   0.13239   0.00000  Uiso   1.00
H430   H     0.73893   0.88078   0.18060   0.00000  Uiso   1.00
H431   H     0.62972   0.88830   0.15866   0.00000  Uiso   1.00
H432   H     0.62799   0.61714   0.54151   0.00000  Uiso   1.00
H433   H     0.64048   0.56481   0.47423   0.00000  Uiso   1.00
H434   H     0.52768   0.54756   0.49334   0.00000  Uiso   1.00
H435   H     0.74008   0.69314   0.40063   0.00000  Uiso   1.00
H436   H     0.79684   0.78237   0.45750   0.00000  Uiso   1.00
H437   H     0.76120   0.82053   0.40334   0.00000  Uiso   1.00
H438   H     0.61528   0.69113   0.31939   0.00000  Uiso   1.00
H439   H     0.71267   0.80355   0.29296   0.00000  Uiso   1.00
H440   H     0.68936   0.68140   0.25987   0.00000  Uiso   1.00
H441   H     0.81193   0.94376   0.34258   0.00000  Uiso   1.00
H442   H     0.76995   0.96035   0.27383   0.00000  Uiso   1.00
H443   H     0.86060   1.07534   0.30905   0.00000  Uiso   1.00
H444   H     1.06582   0.95638   0.29986   0.00000  Uiso   1.00
H445   H     0.95903   0.90607   0.34965   0.00000  Uiso   1.00
H446   H     1.03942   1.04586   0.34268   0.00000  Uiso   1.00
H447   H     1.05616   1.07922   0.19207   0.00000  Uiso   1.00
H448   H     1.04574   1.15849   0.25168   0.00000  Uiso   1.00
H449   H     0.94941   1.11527   0.20279   0.00000  Uiso   1.00
H450   H     0.70787   1.02548   0.80436   0.00000  Uiso   1.00
H451   H     0.64419   1.09466   0.78295   0.00000  Uiso   1.00
H452   H     0.76561   1.15927   0.81450   0.00000  Uiso   1.00
H453   H     0.91799   1.13853   0.76477   0.00000  Uiso   1.00
H454   H     0.94430   1.24676   0.72316   0.00000  Uiso   1.00
H455   H     0.93450   1.11352   0.69148   0.00000  Uiso   1.00
H456   H     0.72806   0.79361   1.00205   0.00000  Uiso   1.00
H457   H     0.81435   0.74844   0.98106   0.00000  Uiso   1.00
H458   H     0.72269   0.72316   0.93566   0.00000  Uiso   1.00
H459   H     0.78973   1.27319   0.68585   0.00000  Uiso   1.00
H460   H     0.67234   1.16721   0.67182   0.00000  Uiso   1.00
H461   H     0.77278   1.18816   0.62667   0.00000  Uiso   1.00
loop_
_geom_bond_atom_site_label_1
_geom_bond_atom_site_label_2
_geom_bond_distance
_geom_bond_site_symmetry_2
_ccdc_geom_bond_type
Si1    O52     1.599   .     S
Si1    O92     1.602   .     S
Si1    O78     1.611   1_545 S
Si1    O81     1.544   1_545 S
Si2    O52     1.620   .     S
Si2    C53     1.838   .     S
Si2    O62     1.602   1_554 S
Si2    O102    1.618   1_554 S
Si3    C54     1.850   .     S
Si3    C55     1.901   .     S
Si3    C56     1.894   1_545 S
Si3    O90     1.640   1_545 S
Si4    C57     1.848   .     S
Si4    O63     1.598   .     S
Si4    C58     1.824   1_455 S
Si4    C59     1.881   1_455 S
Si5    O64     1.614   .     S
Si5    O100    1.552   .     S
Si5    C60     1.834   1_545 S
Si5    C61     1.854   1_545 S
Si6    O62     1.649   .     S
Si6    C69     1.846   .     S
Si6    O149    1.625   1_455 S
Si6    O152    1.597   1_455 S
Si7    O63     1.573   .     S
Si7    O64     1.625   .     S
Si7    C65     1.858   .     S
Si7    C71     1.855   .     S
Si8    C66     1.887   .     S
Si8    O76     1.628   .     S
Si8    O161    1.601   1_455 S
Si8    O165    1.585   1_455 S
Si9    C67     1.813   .     S
Si9    O77     1.621   .     S
Si9    C68     1.817   1_554 S
Si9    C128    1.827   1_554 S
Si10   C70     1.875   .     S
Si10   C72     1.863   .     S
Si10   O74     1.632   .     S
Si10   O125    1.610   .     S
Si11   C73     1.764   .     S
Si11   O74     1.556   .     S
Si11   C75     1.910   .     S
Si11   C118    1.955   .     S
Si12   O76     1.649   .     S
Si12   O77     1.565   .     S
Si12   O80     1.600   .     S
Si12   O129    1.633   .     S
Si13   O78     1.658   .     S
Si13   C86     1.881   .     S
Si13   C79     1.809   1_455 S
Si13   O188    1.580   1_455 S
Si14   O80     1.612   .     S
Si14   O81     1.617   .     S
Si14   C82     1.849   1_554 S
Si14   C83     1.828   1_554 S
Si15   C84     1.874   .     S
Si15   C85     1.827   .     S
Si15   C88     1.887   .     S
Si15   O134    1.605   .     S
Si16   C87     1.886   .     S
Si16   C89     1.891   .     S
Si16   O90     1.612   .     S
Si16   O131    1.638   .     S
Si17   O94     1.580   .     S
Si17   O146    1.618   .     S
Si17   C91     1.866   1_545 S
Si17   O130    1.576   1_545 S
Si18   O92     1.566   .     S
Si18   C93     1.808   .     S
Si18   O96     1.624   .     S
Si18   O103    1.592   .     S
Si19   O94     1.536   .     S
Si19   O104    1.636   .     S
Si19   O101    1.564   1_554 S
Si19   O157    1.598   1_554 S
Si20   C95     1.827   .     S
Si20   O97     1.578   .     S
Si20   O135    1.640   1_545 S
Si20   O139    1.611   1_545 S
Si21   O96     1.602   .     S
Si21   O97     1.606   .     S
Si21   O113    1.667   .     S
Si21   O148    1.538   .     S
Si22   C98     1.875   .     S
Si22   C154    1.842   .     S
Si22   C99     1.913   1_545 S
Si22   O145    1.593   1_545 S
Si23   O100    1.593   .     S
Si23   O101    1.562   .     S
Si23   O102    1.651   .     S
Si23   O122    1.590   .     S
Si24   O103    1.593   .     S
Si24   O104    1.612   .     S
Si24   C105    1.871   .     S
Si24   C109    1.890   .     S
Si25   C106    1.911   .     S
Si25   C107    1.825   .     S
Si25   C108    1.868   .     S
Si25   O119    1.586   .     S
Si26   C110    1.906   .     S
Si26   C111    1.821   .     S
Si26   O126    1.605   1_554 S
Si26   O176    1.575   1_554 S
Si27   C112    1.867   .     S
Si27   O113    1.619   .     S
Si27   C114    1.834   .     S
Si27   O120    1.598   .     S
Si28   C115    1.884   .     S
Si28   C116    1.897   .     S
Si28   C117    1.873   .     S
Si28   O132    1.528   .     S
Si29   O119    1.632   .     S
Si29   O120    1.592   .     S
Si29   C121    1.859   .     S
Si29   O133    1.610   .     S
Si30   O122    1.585   .     S
Si30   C123    1.915   .     S
Si30   C124    1.789   .     S
Si30   O173    1.620   .     S
Si31   O125    1.585   .     S
Si31   O126    1.607   .     S
Si31   C127    1.898   .     S
Si31   C140    1.901   .     S
Si32   O129    1.620   .     S
Si32   O130    1.589   .     S
Si32   O131    1.601   .     S
Si32   O137    1.621   .     S
Si33   O132    1.589   .     S
Si33   O133    1.592   .     S
Si33   O138    1.601   .     S
Si33   O184    1.546   .     S
Si34   O134    1.624   .     S
Si34   O135    1.576   .     S
Si34   C136    1.873   .     S
Si34   O143    1.534   .     S
Si35   O137    1.574   .     S
Si35   O138    1.618   .     S
Si35   O139    1.555   .     S
Si35   O183    1.574   .     S
Si36   C141    1.890   .     S
Si36   C142    1.819   .     S
Si36   O144    1.561   .     S
Si36   O193    1.530   .     S
Si37   O143    1.578   .     S
Si37   O144    1.592   .     S
Si37   O145    1.624   .     S
Si37   O187    1.601   .     S
Si38   O146    1.645   .     S
Si38   C147    1.823   .     S
Si38   O148    1.671   .     S
Si38   O158    1.602   .     S
Si39   C150    1.856   .     S
Si39   O159    1.580   .     S
Si39   O149    1.577   1_554 S
Si39   O156    1.640   1_554 S
Si40   C151    1.933   .     S
Si40   O152    1.582   .     S
Si40   C153    1.872   1_545 S
Si40   C196    1.920   1_545 S
Si41   C155    1.930   .     S
Si41   O156    1.612   .     S
Si41   O157    1.645   .     S
Si41   C169    1.905   .     S
Si42   O158    1.636   .     S
Si42   O159    1.547   .     S
Si42   C160    1.855   .     S
Si42   O161    1.603   .     S
Si43   C162    1.877   .     S
Si43   C163    1.915   .     S
Si43   C164    1.816   .     S
Si43   O167    1.569   .     S
Si44   O165    1.589   .     S
Si44   C166    1.844   .     S
Si44   O167    1.555   .     S
Si44   C168    1.848   .     S
Si45   C170    1.880   .     S
Si45   C171    1.843   .     S
Si45   C172    1.844   .     S
Si45   O179    1.595   .     S
Si46   O173    1.575   .     S
Si46   C174    1.839   .     S
Si46   C175    1.903   .     S
Si46   O176    1.605   .     S
Si47   C177    1.909   .     S
Si47   C178    1.928   .     S
Si47   O179    1.622   .     S
Si47   C180    1.787   .     S
Si48   C181    1.916   .     S
Si48   C182    1.945   .     S
Si48   O183    1.593   .     S
Si48   C189    1.876   .     S
Si49   O184    1.596   .     S
Si49   C185    1.788   .     S
Si49   C186    1.914   .     S
Si49   O187    1.638   .     S
Si50   O188    1.648   .     S
Si50   C190    1.823   .     S
Si50   C191    1.809   .     S
Si50   C192    1.883   .     S
Si51   O193    1.577   .     S
Si51   C194    1.923   .     S
Si51   C195    1.875   .     S
Si51   C197    1.854   .     S
C53    H198    1.123   .     S
C53    H199    1.093   .     S
C53    H200    1.109   .     S
C54    H201    1.092   .     S
C54    H202    1.145   .     S
C54    H203    1.127   .     S
C55    H204    1.091   .     S
C55    H205    1.091   .     S
C55    H206    1.125   .     S
C56    H207    1.140   .     S
C56    H208    1.139   .     S
C56    H209    1.159   .     S
C56    Si3     1.894   1_565 S
C57    H210    1.101   .     S
C57    H211    1.111   .     S
C57    H212    1.158   .     S
C58    H213    1.090   .     S
C58    H214    1.147   .     S
C58    H215    1.087   .     S
C58    Si4     1.824   1_655 S
C59    H216    1.146   .     S
C59    H217    1.046   .     S
C59    H218    1.140   .     S
C59    Si4     1.881   1_655 S
C60    H219    1.107   .     S
C60    H220    1.077   .     S
C60    H221    1.091   .     S
C60    Si5     1.834   1_565 S
C61    H222    1.075   .     S
C61    H223    1.081   .     S
C61    H224    1.072   .     S
C61    Si5     1.854   1_565 S
O62    Si2     1.602   1_556 S
C65    H225    1.117   .     S
C65    H226    1.104   .     S
C65    H227    1.121   .     S
C66    H228    1.134   .     S
C66    H229    1.133   .     S
C66    H230    1.088   .     S
C67    H231    1.121   .     S
C67    H232    1.088   .     S
C67    H233    1.149   .     S
C68    H234    1.092   .     S
C68    H235    1.126   .     S
C68    H236    1.083   .     S
C68    Si9     1.817   1_556 S
C69    H237    1.080   .     S
C69    H238    1.106   .     S
C69    H239    1.093   .     S
C70    H240    1.085   .     S
C70    H241    1.146   .     S
C70    H242    1.111   .     S
C71    H243    1.111   .     S
C71    H244    1.090   .     S
C71    H245    1.055   .     S
C72    H246    1.111   .     S
C72    H247    1.101   .     S
C72    H248    1.035   .     S
C73    H249    1.085   .     S
C73    H250    1.132   .     S
C73    H251    1.122   .     S
C75    H252    1.087   .     S
C75    H253    1.144   .     S
C75    H254    1.087   .     S
O78    Si1     1.611   1_565 S
C79    H255    1.101   .     S
C79    H256    1.100   .     S
C79    H257    1.131   .     S
C79    Si13    1.809   1_655 S
O81    Si1     1.544   1_565 S
C82    H258    1.047   .     S
C82    H259    1.098   .     S
C82    H260    1.109   .     S
C82    Si14    1.849   1_556 S
C83    H261    1.124   .     S
C83    H262    1.078   .     S
C83    H263    1.076   .     S
C83    Si14    1.828   1_556 S
C84    H264    1.147   .     S
C84    H265    1.104   .     S
C84    H266    1.130   .     S
C85    H267    1.107   .     S
C85    H268    1.121   .     S
C85    H269    1.082   .     S
C86    H270    1.089   .     S
C86    H271    1.143   .     S
C86    H272    1.119   .     S
C87    H273    1.074   .     S
C87    H274    1.033   .     S
C87    H275    1.113   .     S
C88    H276    1.065   .     S
C88    H277    1.116   .     S
C88    H278    1.100   .     S
C89    H279    1.119   .     S
C89    H280    1.135   .     S
C89    H281    1.059   .     S
O90    Si3     1.640   1_565 S
C91    H282    1.101   .     S
C91    H283    1.147   .     S
C91    H284    1.125   .     S
C91    Si17    1.866   1_565 S
C93    H285    1.108   .     S
C93    H286    1.136   .     S
C93    H287    1.086   .     S
C95    H288    1.069   .     S
C95    H289    1.153   .     S
C95    H290    1.118   .     S
C98    H291    1.143   .     S
C98    H292    1.162   .     S
C98    H293    1.112   .     S
C99    H294    1.088   .     S
C99    H295    1.136   .     S
C99    H296    1.118   .     S
C99    Si22    1.913   1_565 S
O101   Si19    1.564   1_556 S
O102   Si2     1.618   1_556 S
C105   H297    1.108   .     S
C105   H298    1.139   .     S
C105   H299    1.086   .     S
C106   H300    1.120   .     S
C106   H301    1.146   .     S
C106   H302    1.081   .     S
C107   H303    1.110   .     S
C107   H304    1.074   .     S
C107   H305    1.049   .     S
C108   H306    1.079   .     S
C108   H307    1.097   .     S
C108   H308    1.118   .     S
C109   H309    1.129   .     S
C109   H310    1.117   .     S
C109   H311    1.110   .     S
C110   H312    1.112   .     S
C110   H313    1.150   .     S
C110   H314    1.116   .     S
C111   H315    1.100   .     S
C111   H316    1.078   .     S
C111   H317    1.078   .     S
C112   H318    1.136   .     S
C112   H319    1.081   .     S
C112   H320    1.089   .     S
C114   H321    1.095   .     S
C114   H322    1.108   .     S
C114   H323    1.155   .     S
C115   H324    1.133   .     S
C115   H325    1.072   .     S
C115   H326    1.126   .     S
C116   H327    1.096   .     S
C116   H328    1.106   .     S
C116   H329    1.122   .     S
C117   H330    1.157   .     S
C117   H331    1.113   .     S
C117   H332    1.115   .     S
C118   H333    1.144   .     S
C118   H334    1.072   .     S
C118   H335    1.101   .     S
C121   H336    1.091   .     S
C121   H337    1.108   .     S
C121   H338    1.102   .     S
C123   H339    1.154   .     S
C123   H340    1.100   .     S
C123   H341    1.103   .     S
C124   H342    1.141   .     S
C124   H343    1.079   .     S
C124   H344    1.094   .     S
O126   Si26    1.605   1_556 S
C127   H345    1.096   .     S
C127   H346    1.137   .     S
C127   H347    1.111   .     S
C128   H348    1.140   .     S
C128   H349    1.132   .     S
C128   H350    1.096   .     S
C128   Si9     1.827   1_556 S
O130   Si17    1.576   1_565 S
O135   Si20    1.640   1_565 S
C136   H351    1.142   .     S
C136   H352    1.101   .     S
C136   H353    1.058   .     S
O139   Si20    1.611   1_565 S
C140   H354    1.128   .     S
C140   H355    1.101   .     S
C140   H356    1.070   .     S
C141   H357    1.109   .     S
C141   H358    1.067   .     S
C141   H359    1.146   .     S
C142   H360    1.093   .     S
C142   H361    1.105   .     S
C142   H362    1.062   .     S
O145   Si22    1.593   1_565 S
C147   H363    1.160   .     S
C147   H364    1.113   .     S
C147   H365    1.092   .     S
O149   Si6     1.625   1_655 S
O149   Si39    1.577   1_556 S
C150   H366    1.134   .     S
C150   H367    1.133   .     S
C150   H368    1.072   .     S
C151   H369    1.145   .     S
C151   H370    1.074   .     S
C151   H371    1.156   .     S
O152   Si6     1.597   1_655 S
C153   H372    1.128   .     S
C153   H373    1.119   .     S
C153   H374    1.138   .     S
C153   Si40    1.872   1_565 S
C154   H375    1.106   .     S
C154   H376    1.105   .     S
C154   H377    1.111   .     S
C155   H378    1.108   .     S
C155   H379    1.064   .     S
C155   H380    1.141   .     S
O156   Si39    1.640   1_556 S
O157   Si19    1.598   1_556 S
C160   H381    1.119   .     S
C160   H382    1.104   .     S
C160   H383    1.126   .     S
O161   Si8     1.601   1_655 S
C162   H384    1.010   .     S
C162   H385    1.075   .     S
C162   H386    1.099   .     S
C163   H387    1.125   .     S
C163   H388    1.107   .     S
C163   H389    1.073   .     S
C164   H390    1.121   .     S
C164   H391    1.128   .     S
C164   H392    1.111   .     S
O165   Si8     1.585   1_655 S
C166   H393    1.056   .     S
C166   H394    1.148   .     S
C166   H395    1.098   .     S
C168   H396    1.104   .     S
C168   H397    1.136   .     S
C168   H398    1.120   .     S
C169   H399    1.121   .     S
C169   H400    1.051   .     S
C169   H401    1.098   .     S
C170   H402    1.135   .     S
C170   H403    1.104   .     S
C170   H404    1.065   .     S
C171   H405    1.109   .     S
C171   H406    1.098   .     S
C171   H407    1.171   .     S
C172   H408    1.156   .     S
C172   H409    1.122   .     S
C172   H410    1.101   .     S
C174   H411    1.066   .     S
C174   H412    1.082   .     S
C174   H413    1.103   .     S
C175   H414    1.095   .     S
C175   H415    1.107   .     S
C175   H416    1.121   .     S
O176   Si26    1.575   1_556 S
C177   H417    1.054   .     S
C177   H418    1.126   .     S
C177   H419    1.132   .     S
C178   H420    1.094   .     S
C178   H421    1.094   .     S
C178   H422    1.092   .     S
C180   H423    1.135   .     S
C180   H424    1.184   .     S
C180   H425    1.158   .     S
C181   H426    1.140   .     S
C181   H427    1.065   .     S
C181   H428    1.121   .     S
C182   H429    1.059   .     S
C182   H430    1.116   .     S
C182   H431    1.115   .     S
C185   H432    1.103   .     S
C185   H433    1.168   .     S
C185   H434    1.086   .     S
C186   H435    1.051   .     S
C186   H436    1.109   .     S
C186   H437    1.055   .     S
O188   Si13    1.580   1_655 S
C189   H438    1.109   .     S
C189   H439    1.050   .     S
C189   H440    1.115   .     S
C190   H441    1.144   .     S
C190   H442    1.109   .     S
C190   H443    1.104   .     S
C191   H444    1.145   .     S
C191   H445    1.133   .     S
C191   H446    1.111   .     S
C192   H447    1.180   .     S
C192   H448    1.098   .     S
C192   H449    1.121   .     S
C194   H450    1.113   .     S
C194   H451    1.119   .     S
C194   H452    1.080   .     S
C195   H453    1.119   .     S
C195   H454    1.163   .     S
C195   H455    1.140   .     S
C196   H456    1.098   .     S
C196   H457    1.103   .     S
C196   H458    1.066   .     S
C196   Si40    1.920   1_565 S
C197   H459    1.118   .     S
C197   H460    1.060   .     S
C197   H461    1.104   .     S
