data_333-15-11-10-15-30-17
_audit_creation_date              2025-03-07
_audit_creation_method            'Materials Studio'
_symmetry_space_group_name_H-M    'P1'
_symmetry_Int_Tables_number       1
_symmetry_cell_setting            triclinic
loop_
_symmetry_equiv_pos_as_xyz
  x,y,z
_cell_length_a                    17.9232
_cell_length_b                    17.9527
_cell_length_c                    17.8013
_cell_angle_alpha                 93.5727
_cell_angle_beta                  82.8100
_cell_angle_gamma                 127.4043
loop_
_atom_site_label
_atom_site_type_symbol
_atom_site_fract_x
_atom_site_fract_y
_atom_site_fract_z
_atom_site_U_iso_or_equiv
_atom_site_adp_type
_atom_site_occupancy
Si1    Si    0.28679   0.05873   0.12620   0.00000  Uiso   1.00
Si2    Si    0.05939   0.18374   0.24413   0.00000  Uiso   1.00
Si3    Si    0.22139   0.16179   0.05616   0.00000  Uiso   1.00
Si4    Si    0.15478   0.02836   0.43251   0.00000  Uiso   1.00
Si5    Si    0.02339   0.15004   0.52783   0.00000  Uiso   1.00
Si6    Si    0.18195   0.16010   0.31888   0.00000  Uiso   1.00
Si7    Si    0.15100   0.16518   0.62931   0.00000  Uiso   1.00
Si8    Si    0.23629   0.32093   0.13675   0.00000  Uiso   1.00
Si9    Si    0.16724   0.36033   0.00126   0.00000  Uiso   1.00
Si10   Si    0.18032   0.30243   0.42434   0.00000  Uiso   1.00
Si11   Si    0.19782   0.44983   0.32871   0.00000  Uiso   1.00
Si12   Si   -0.06890   0.35904   0.82808   0.00000  Uiso   1.00
Si13   Si    0.32149   0.92961   0.03114   0.00000  Uiso   1.00
Si14   Si    0.12759   0.71032   0.44153   0.00000  Uiso   1.00
Si15   Si   -0.04008   0.88325   0.53088   0.00000  Uiso   1.00
Si16   Si    0.18219   0.88564   0.36669   0.00000  Uiso   1.00
Si17   Si    0.11461   0.50280   0.73865   0.00000  Uiso   1.00
Si18   Si   -0.02300   0.79871   0.80587   0.00000  Uiso   1.00
Si19   Si    0.37056   0.21577   0.23963   0.00000  Uiso   1.00
Si20   Si    0.61317   0.29430   0.01953   0.00000  Uiso   1.00
Si21   Si    0.52590  -0.04514   0.36733   0.00000  Uiso   1.00
Si22   Si    0.31737   0.19004   0.52837   0.00000  Uiso   1.00
Si23   Si    0.50216   0.24727   0.34953   0.00000  Uiso   1.00
Si24   Si    0.46746   0.01554   0.65247   0.00000  Uiso   1.00
Si25   Si    0.32177   0.21547   0.89663   0.00000  Uiso   1.00
Si26   Si    0.44613   0.16261   0.60345   0.00000  Uiso   1.00
Si27   Si    0.53787   0.37310   0.14109   0.00000  Uiso   1.00
Si28   Si    0.37168   0.49592   0.22607   0.00000  Uiso   1.00
Si29   Si    0.49704   0.38523   0.45319   0.00000  Uiso   1.00
Si30   Si    0.51311   0.52289   0.33989   0.00000  Uiso   1.00
Si31   Si    0.49490   0.54961   0.70330   0.00000  Uiso   1.00
Si32   Si    0.43465   0.62814   0.09761   0.00000  Uiso   1.00
Si33   Si    0.53346   0.67973   0.44412   0.00000  Uiso   1.00
Si34   Si    0.49662   0.77460   0.33453   0.00000  Uiso   1.00
Si35   Si    0.51236   0.87231   0.61736   0.00000  Uiso   1.00
Si36   Si    0.83351   0.22219   0.22082   0.00000  Uiso   1.00
Si37   Si    0.86019   0.00600   0.43530   0.00000  Uiso   1.00
Si38   Si    0.91286   0.18184   0.34973   0.00000  Uiso   1.00
Si39   Si    0.79567  -0.02155   0.77649   0.00000  Uiso   1.00
Si40   Si    0.67359   0.52752   0.24399   0.00000  Uiso   1.00
Si41   Si    0.88579   0.28638   0.48110   0.00000  Uiso   1.00
Si42   Si    0.62912   0.54910   0.56289   0.00000  Uiso   1.00
Si43   Si    0.79494   0.55306   0.36189   0.00000  Uiso   1.00
Si44   Si    0.74416   0.55169   0.68103   0.00000  Uiso   1.00
Si45   Si    0.82583   0.64310   0.11246   0.00000  Uiso   1.00
Si46   Si    0.66848   0.81508   0.24037   0.00000  Uiso   1.00
Si47   Si    0.79833   0.70946   0.45207   0.00000  Uiso   1.00
Si48   Si    0.67509   0.86086   0.53074   0.00000  Uiso   1.00
Si49   Si    0.80497   0.83814   0.34265   0.00000  Uiso   1.00
Si50   Si    0.79570   0.73698   0.75148   0.00000  Uiso   1.00
Si51   Si    0.80351   0.86657   0.64036   0.00000  Uiso   1.00
C52    C     0.16706   0.96600   0.17230   0.00000  Uiso   1.00
C53    C     0.97259   0.09919   0.18553   0.00000  Uiso   1.00
O54    O     0.27569   0.12151   0.07420   0.00000  Uiso   1.00
C55    C     0.09470   0.06725   1.06035   0.00000  Uiso   1.00
C56    C     0.95179   0.16019   0.60521   0.00000  Uiso   1.00
O57    O     0.09894   0.14137   0.28254   0.00000  Uiso   1.00
O58    O     0.14863   0.06704   0.35686   0.00000  Uiso   1.00
O59    O     0.09026   0.13837   0.56326   0.00000  Uiso   1.00
C60    C     0.08439   0.05601   0.69381   0.00000  Uiso   1.00
C61    C     0.15424   0.25785   0.68981   0.00000  Uiso   1.00
O62    O     0.14035   0.27347   0.19472   0.00000  Uiso   1.00
O63    O     0.24419   0.23928   0.11657   0.00000  Uiso   1.00
O64    O     0.22800   0.35930   0.06026   0.00000  Uiso   1.00
C65    C     0.09972   0.40467   0.04327   0.00000  Uiso   1.00
C66    C     0.08779   0.24676   0.95839   0.00000  Uiso   1.00
C67    C     0.25025   0.43799   0.91995   0.00000  Uiso   1.00
O68    O     0.08539   0.24137   0.47762   0.00000  Uiso   1.00
O69    O     0.20987   0.23991   0.37943   0.00000  Uiso   1.00
C70    C     0.27824   0.38493   0.48201   0.00000  Uiso   1.00
C71    C     0.09468   0.43391   0.29153   0.00000  Uiso   1.00
O72    O     0.17192   0.35608   0.36271   0.00000  Uiso   1.00
C73    C    -0.16614   0.30736   0.76380   0.00000  Uiso   1.00
C74    C    -0.05905   0.44667   0.89482   0.00000  Uiso   1.00
C75    C    -0.09992   0.25723   0.88064   0.00000  Uiso   1.00
C76    C     0.20654   0.80918   0.06311   0.00000  Uiso   1.00
O77    O     0.32798   1.01348   0.07488   0.00000  Uiso   1.00
C78    C     0.41183   0.91853   1.05542   0.00000  Uiso   1.00
C79    C     0.00903   0.65175   0.48705   0.00000  Uiso   1.00
C80    C     0.22752   0.52937   0.40877   0.00000  Uiso   1.00
C81    C     0.12618   0.64624   0.35275   0.00000  Uiso   1.00
C82    C     0.18995   0.70419   0.51806   0.00000  Uiso   1.00
C83    C     0.00995   0.84986   0.59404   0.00000  Uiso   1.00
O84    O     0.05246   0.97425   0.48326   0.00000  Uiso   1.00
C85    C     0.07399   0.81947   0.31806   0.00000  Uiso   1.00
O86    O     0.17866   0.81565   0.42079   0.00000  Uiso   1.00
O87    O     0.18694   0.96246   0.41462   0.00000  Uiso   1.00
C88    C     0.28578   0.93717   0.29655   0.00000  Uiso   1.00
C89    C     0.07380   0.56810   0.70692   0.00000  Uiso   1.00
O90    O     0.03100   0.40638   0.77943   0.00000  Uiso   1.00
C91    C     0.17302   0.48240   0.65614   0.00000  Uiso   1.00
C92    C     0.20681   0.57748   0.80429   0.00000  Uiso   1.00
C93    C    -0.08488   0.68531   0.85982   0.00000  Uiso   1.00
C94    C     0.33587   0.93403   0.92370   0.00000  Uiso   1.00
C95    C     0.06873   0.80151   0.74328   0.00000  Uiso   1.00
C96    C     1.03184   0.89488   0.87309   0.00000  Uiso   1.00
O97    O     0.35551   0.13224   0.18621   0.00000  Uiso   1.00
O98    O     0.27232   0.19584   0.25577   0.00000  Uiso   1.00
C99    C     0.52491   0.17825  -0.02220   0.00000  Uiso   1.00
C100   C     0.69767   0.28220   1.05201   0.00000  Uiso   1.00
C101   C     0.63379   0.06367   0.40279   0.00000  Uiso   1.00
C102   C     0.41610   0.91714   0.43083   0.00000  Uiso   1.00
O103   O     0.24590   0.12440   0.46806   0.00000  Uiso   1.00
O104   O     0.25832   0.19725   0.59966   0.00000  Uiso   1.00
O105   O     0.41176   0.21928   0.31553   0.00000  Uiso   1.00
C106   C     0.50431  -0.03291   0.26764   0.00000  Uiso   1.00
C107   C     0.47322   0.14588   0.40354   0.00000  Uiso   1.00
C108   C     0.55387   0.09246   0.72286   0.00000  Uiso   1.00
C109   C     0.35226   0.92113   0.70415   0.00000  Uiso   1.00
C110   C     0.28629   0.25310   0.81853   0.00000  Uiso   1.00
C111   C     0.28846   0.09769   0.87674   0.00000  Uiso   1.00
C112   C     0.68242   0.38973   0.94083   0.00000  Uiso   1.00
C113   C     0.44828   0.31053   0.90457   0.00000  Uiso   1.00
O114   O     0.26116   0.20694   0.97403   0.00000  Uiso   1.00
O115   O     0.36893   0.14868   0.55300   0.00000  Uiso   1.00
O116   O     0.44905   0.07566   0.60313   0.00000  Uiso   1.00
C117   C     0.42493   0.19628   0.69837   0.00000  Uiso   1.00
C118   C     0.56156   0.27225   0.57552   0.00000  Uiso   1.00
O119   O     0.44238   0.30973   0.19668   0.00000  Uiso   1.00
O120   O     0.55302   0.30611   0.08648   0.00000  Uiso   1.00
C121   C     0.52904   0.44998   0.08492   0.00000  Uiso   1.00
O122   O     0.32877   0.40595   0.17317   0.00000  Uiso   1.00
O123   O     0.28273   0.49080   0.26229   0.00000  Uiso   1.00
O124   O     0.39600   0.29769   0.49978   0.00000  Uiso   1.00
O125   O     0.53251   0.33083   0.40420   0.00000  Uiso   1.00
O126   O     0.42715   0.49062   0.29185   0.00000  Uiso   1.00
O127   O     0.47782   0.43889   0.39906   0.00000  Uiso   1.00
C128   C     0.37030   0.45479   0.68563   0.00000  Uiso   1.00
C129   C     0.51939   0.50442   0.77988   0.00000  Uiso   1.00
C130   C     0.50143   0.65528   0.73184   0.00000  Uiso   1.00
O131   O     0.44003   0.58984   0.17330   0.00000  Uiso   1.00
C132   C     0.47622   0.58752   0.01196   0.00000  Uiso   1.00
C133   C     0.31616   0.60762   0.09681   0.00000  Uiso   1.00
C134   C     0.44973   0.60547   0.52580   0.00000  Uiso   1.00
O135   O     0.55428   0.62145   0.38498   0.00000  Uiso   1.00
C136   C     0.38660   0.73284   0.29762   0.00000  Uiso   1.00
O137   O     0.48028   0.71113   0.40351   0.00000  Uiso   1.00
O138   O     0.54092   0.87681   0.36209   0.00000  Uiso   1.00
C139   C     0.39495   0.75789   0.60442   0.00000  Uiso   1.00
C140   C     0.51546   0.86656   0.72214   0.00000  Uiso   1.00
O141   O     0.50534   0.95716   0.60592   0.00000  Uiso   1.00
C142   C     0.71765   0.14344   0.19198   0.00000  Uiso   1.00
C143   C     0.90393   0.21363   0.13750   0.00000  Uiso   1.00
C144   C     0.85994   0.34020   0.23147   0.00000  Uiso   1.00
C145   C     0.61133   0.27839   0.27931   0.00000  Uiso   1.00
O146   O     0.95219   0.06165   0.48034   0.00000  Uiso   1.00
O147   O     1.01006   0.21279   0.30607   0.00000  Uiso   1.00
O148   O     0.85344   0.18890   0.29240   0.00000  Uiso   1.00
O149   O     0.85872   0.07856   0.38488   0.00000  Uiso   1.00
C150   C     0.77906   0.06682   0.75583   0.00000  Uiso   1.00
C151   C     0.89323   0.03108   0.84113   0.00000  Uiso   1.00
C152   C     0.68486   0.88413   0.82867   0.00000  Uiso   1.00
O153   O     0.62192   0.43505   0.19306   0.00000  Uiso   1.00
O154   O     0.59457   0.53943   0.27686   0.00000  Uiso   1.00
C155   C     0.79469   0.18877   0.54633   0.00000  Uiso   1.00
O156   O     0.92996   0.25298   0.41730   0.00000  Uiso   1.00
C157   C     0.97934   0.38161   0.53371   0.00000  Uiso   1.00
O158   O     0.57317   0.46045   0.50994   0.00000  Uiso   1.00
O159   O     0.55647   0.56012   0.62113   0.00000  Uiso   1.00
C160   C     0.89523   0.56821   0.30928   0.00000  Uiso   1.00
O161   O     0.71319   0.51233   0.31307   0.00000  Uiso   1.00
C162   C     0.83021   0.32390   0.42979   0.00000  Uiso   1.00
C163   C     0.75984   0.46726   0.43458   0.00000  Uiso   1.00
C164   C     0.84678   0.57418   0.62801   0.00000  Uiso   1.00
O165   O     0.67279   0.52099   0.62211   0.00000  Uiso   1.00
C166   C     0.70324   0.45212   0.74354   0.00000  Uiso   1.00
O167   O     0.75726   0.61410   0.19226   0.00000  Uiso   1.00
C168   C     0.83977   0.54912   0.08751   0.00000  Uiso   1.00
C169   C     0.76945   0.65399   0.03568   0.00000  Uiso   1.00
C170   C     0.94201   0.75265   0.11453   0.00000  Uiso   1.00
C171   C     0.51308   0.76004   0.09012   0.00000  Uiso   1.00
C172   C     0.67376   0.73315   0.17724   0.00000  Uiso   1.00
C173   C     0.72604   0.92749   0.18843   0.00000  Uiso   1.00
O174   O     0.56161   0.77572   0.26523   0.00000  Uiso   1.00
O175   O     0.71556   0.64620   0.51551   0.00000  Uiso   1.00
O176   O     0.82068   0.64661   0.40448   0.00000  Uiso   1.00
O177   O     0.90164   0.79568   0.47803   0.00000  Uiso   1.00
O178   O     0.62911   0.77395   0.47256   0.00000  Uiso   1.00
O179   O     0.76282   0.95406   0.49258   0.00000  Uiso   1.00
O180   O     0.60030   0.88353   0.56601   0.00000  Uiso   1.00
C181   C     0.88815   0.85090   0.25844   0.00000  Uiso   1.00
O182   O     0.71757   0.82766   0.31175   0.00000  Uiso   1.00
O183   O     0.76743   0.75230   0.39856   0.00000  Uiso   1.00
O184   O     0.86149   0.93228   0.38548   0.00000  Uiso   1.00
C185   C     0.72924   0.72952   0.84117   0.00000  Uiso   1.00
O186   O     0.76139   0.63368   0.73271   0.00000  Uiso   1.00
O187   O     0.90408   0.79872   0.76282   0.00000  Uiso   1.00
O188   O     0.89473   0.90562   0.57704   0.00000  Uiso   1.00
O189   O     0.71577   0.83949   0.59598   0.00000  Uiso   1.00
O190   O     0.77937   0.77805   0.68413   0.00000  Uiso   1.00
O191   O     0.82259   0.94658   0.69769   0.00000  Uiso   1.00
H192   H     0.10601   0.92946   0.13614   0.00000  Uiso   1.00
H193   H     0.15337   0.99244   0.22268   0.00000  Uiso   1.00
H194   H     0.18111   0.91788   0.19192   0.00000  Uiso   1.00
H195   H     0.90551   0.08131   0.21566   0.00000  Uiso   1.00
H196   H     0.95979   0.03196   0.18116   0.00000  Uiso   1.00
H197   H     0.98756   0.13326   0.12908   0.00000  Uiso   1.00
H198   H     0.05310   0.09158   1.04988   0.00000  Uiso   1.00
H199   H     0.06884   0.02532   1.11260   0.00000  Uiso   1.00
H200   H     0.09157   0.02205   1.01164   0.00000  Uiso   1.00
H201   H     0.98281   0.23250   0.61294   0.00000  Uiso   1.00
H202   H     0.94636   0.12724   0.65507   0.00000  Uiso   1.00
H203   H     0.88306   0.12037   0.59091   0.00000  Uiso   1.00
H204   H     0.01316  -0.00062   0.68026   0.00000  Uiso   1.00
H205   H     0.07315   0.07949   0.74996   0.00000  Uiso   1.00
H206   H     0.12623   0.02728   0.69318   0.00000  Uiso   1.00
H207   H     0.17838   0.31659   0.65335   0.00000  Uiso   1.00
H208   H     0.19983   0.28425   0.73267   0.00000  Uiso   1.00
H209   H     0.08450   0.22877   0.71846   0.00000  Uiso   1.00
H210   H     0.02862   0.36127   0.02390   0.00000  Uiso   1.00
H211   H     0.13799   0.47780   0.02591   0.00000  Uiso   1.00
H212   H     0.08420   0.39955   0.10596   0.00000  Uiso   1.00
H213   H     0.06051   0.25778   0.91595   0.00000  Uiso   1.00
H214   H     0.02340   0.19883   0.99409   0.00000  Uiso   1.00
H215   H     0.12504   0.22118   0.93110   0.00000  Uiso   1.00
H216   H     0.21049   0.40288   0.87091   0.00000  Uiso   1.00
H217   H     0.31633   0.44297   0.91563   0.00000  Uiso   1.00
H218   H     0.27414   0.51158   0.92968   0.00000  Uiso   1.00
H219   H     0.34084   0.43673   0.44489   0.00000  Uiso   1.00
H220   H     0.29338   0.34587   0.51402   0.00000  Uiso   1.00
H221   H     0.25651   0.41932   0.52223   0.00000  Uiso   1.00
H222   H     0.07199   0.37858   0.24919   0.00000  Uiso   1.00
H223   H     0.11203   0.50074   0.26711   0.00000  Uiso   1.00
H224   H     0.03459   0.40939   0.33504   0.00000  Uiso   1.00
H225   H    -0.15860   0.36203   0.73288   0.00000  Uiso   1.00
H226   H    -0.23564   0.26554   0.80015   0.00000  Uiso   1.00
H227   H    -0.16523   0.25618   0.72463   0.00000  Uiso   1.00
H228   H    -0.12898   0.40605   0.93088   0.00000  Uiso   1.00
H229   H    -0.04705   0.50745   0.86938   0.00000  Uiso   1.00
H230   H    -0.00514   0.47364   0.93934   0.00000  Uiso   1.00
H231   H    -0.07296   0.22573   0.84408   0.00000  Uiso   1.00
H232   H    -0.17489   0.19940   0.89858   0.00000  Uiso   1.00
H233   H    -0.05570   0.28491   0.92824   0.00000  Uiso   1.00
H234   H     0.14338   0.80760   0.06826   0.00000  Uiso   1.00
H235   H     0.21748   0.79398   0.11812   0.00000  Uiso   1.00
H236   H     0.20318   0.76875   0.01275   0.00000  Uiso   1.00
H237   H     0.41307   0.93357   1.11613   0.00000  Uiso   1.00
H238   H     0.48479   0.96734   1.02353   0.00000  Uiso   1.00
H239   H     0.38955   0.84976   1.04397   0.00000  Uiso   1.00
H240   H    -0.03652   0.57263   0.47792   0.00000  Uiso   1.00
H241   H    -0.02260   0.68370   0.46874   0.00000  Uiso   1.00
H242   H     0.01990   0.66030   0.54798   0.00000  Uiso   1.00
H243   H     0.30777   0.56281   0.41106   0.00000  Uiso   1.00
H244   H     0.18114   0.48593   0.46052   0.00000  Uiso   1.00
H245   H     0.20613   0.57448   0.39348   0.00000  Uiso   1.00
H246   H     0.06693   0.57194   0.36387   0.00000  Uiso   1.00
H247   H     0.19529   0.66282   0.33382   0.00000  Uiso   1.00
H248   H     0.10383   0.66550   0.30598   0.00000  Uiso   1.00
H249   H     0.26230   0.74075   0.49667   0.00000  Uiso   1.00
H250   H     0.15279   0.63327   0.53356   0.00000  Uiso   1.00
H251   H     0.18596   0.74288   0.56692   0.00000  Uiso   1.00
H252   H     0.06308   0.84295   0.56333   0.00000  Uiso   1.00
H253   H    -0.04530   0.78206   0.61648   0.00000  Uiso   1.00
H254   H     0.04093   0.89954   0.64455   0.00000  Uiso   1.00
H255   H     0.01092   0.76676   0.35358   0.00000  Uiso   1.00
H256   H     0.08158   0.78549   0.26533   0.00000  Uiso   1.00
H257   H     0.06108   0.86600   0.29984   0.00000  Uiso   1.00
H258   H     0.29432   1.00163   0.28264   0.00000  Uiso   1.00
H259   H     0.29028   0.89887   0.24356   0.00000  Uiso   1.00
H260   H     0.34725   0.96202   0.33059   0.00000  Uiso   1.00
H261   H     0.13391   0.63528   0.67878   0.00000  Uiso   1.00
H262   H     0.03183   0.57724   0.75318   0.00000  Uiso   1.00
H263   H     0.02762   0.51874   0.66005   0.00000  Uiso   1.00
H264   H     0.19212   0.52822   0.60839   0.00000  Uiso   1.00
H265   H     0.12624   0.41000   0.63678   0.00000  Uiso   1.00
H266   H     0.24015   0.50412   0.67546   0.00000  Uiso   1.00
H267   H     0.17112   0.56869   0.85915   0.00000  Uiso   1.00
H268   H     0.25574   0.64907   0.77923   0.00000  Uiso   1.00
H269   H     0.24655   0.55169   0.80211   0.00000  Uiso   1.00
H270   H    -0.05619   0.69694   0.91600   0.00000  Uiso   1.00
H271   H    -0.07087   0.63956   0.82403   0.00000  Uiso   1.00
H272   H    -0.15944   0.65749   0.87098   0.00000  Uiso   1.00
H273   H     0.26647   0.90088   0.90609   0.00000  Uiso   1.00
H274   H     0.35262   0.88231   0.90343   0.00000  Uiso   1.00
H275   H     0.39974   1.00282   0.90047   0.00000  Uiso   1.00
H276   H     0.12653   0.87279   0.72825   0.00000  Uiso   1.00
H277   H     0.04639   0.76654   0.68630   0.00000  Uiso   1.00
H278   H     0.10489   0.77732   0.76841   0.00000  Uiso   1.00
H279   H     1.07944   0.88895   0.90053   0.00000  Uiso   1.00
H280   H     0.97514   0.88948   0.91607   0.00000  Uiso   1.00
H281   H     1.07935   0.96217   0.83696   0.00000  Uiso   1.00
H282   H     0.53345   0.18298  -0.08417   0.00000  Uiso   1.00
H283   H     0.45256   0.14969   0.00696   0.00000  Uiso   1.00
H284   H     0.54085   0.12707  -0.01176   0.00000  Uiso   1.00
H285   H     0.76783   0.35196   1.04561   0.00000  Uiso   1.00
H286   H     0.70487   0.23235   1.01884   0.00000  Uiso   1.00
H287   H     0.67754   0.26840   1.11159   0.00000  Uiso   1.00
H288   H     0.66886   0.03820   0.43051   0.00000  Uiso   1.00
H289   H     0.60258   0.08313   0.45421   0.00000  Uiso   1.00
H290   H     0.68460   0.12067   0.36017   0.00000  Uiso   1.00
H291   H     0.41162   0.87613   0.47072   0.00000  Uiso   1.00
H292   H     0.35328   0.87184   0.40555   0.00000  Uiso   1.00
H293   H     0.42082   0.97314   0.46688   0.00000  Uiso   1.00
H294   H     0.42837  -0.08514   0.25438   0.00000  Uiso   1.00
H295   H     0.54500  -0.04364   0.22316   0.00000  Uiso   1.00
H296   H     0.52555   0.03983   0.26421   0.00000  Uiso   1.00
H297   H     0.53406   0.18263   0.43687   0.00000  Uiso   1.00
H298   H     0.47848   0.10440   0.36032   0.00000  Uiso   1.00
H299   H     0.40443   0.10321   0.43332   0.00000  Uiso   1.00
H300   H     0.57590   0.05161   0.74459   0.00000  Uiso   1.00
H301   H     0.51414   0.09773   0.77238   0.00000  Uiso   1.00
H302   H     0.61907   0.16520   0.70093   0.00000  Uiso   1.00
H303   H     0.29161   0.91905   0.68768   0.00000  Uiso   1.00
H304   H     0.36444   0.93603   0.76451   0.00000  Uiso   1.00
H305   H     0.34068   0.85415   0.69817   0.00000  Uiso   1.00
H306   H     0.20981   0.22123   0.82297   0.00000  Uiso   1.00
H307   H     0.31588   0.24889   0.76271   0.00000  Uiso   1.00
H308   H     0.32285   0.33158   0.81944   0.00000  Uiso   1.00
H309   H     0.35637   0.10709   0.86666   0.00000  Uiso   1.00
H310   H     0.24621   0.06335   0.83023   0.00000  Uiso   1.00
H311   H     0.24775   0.05594   0.93089   0.00000  Uiso   1.00
H312   H     0.75371   0.45154   0.95215   0.00000  Uiso   1.00
H313   H     0.64636   0.41928   0.93088   0.00000  Uiso   1.00
H314   H     0.68206   0.35124   0.89043   0.00000  Uiso   1.00
H315   H     0.47256   0.29311   0.95036   0.00000  Uiso   1.00
H316   H     0.45553   0.37412   0.91975   0.00000  Uiso   1.00
H317   H     0.48970   0.31961   0.85095   0.00000  Uiso   1.00
H318   H     0.35868   0.14057   0.73030   0.00000  Uiso   1.00
H319   H     0.42780   0.26166   0.69090   0.00000  Uiso   1.00
H320   H     0.47961   0.22279   0.73635   0.00000  Uiso   1.00
H321   H     0.56108   0.28432   0.51755   0.00000  Uiso   1.00
H322   H     0.62175   0.26356   0.58239   0.00000  Uiso   1.00
H323   H     0.56594   0.32266   0.61392   0.00000  Uiso   1.00
H324   H     0.58292   0.47800   0.03576   0.00000  Uiso   1.00
H325   H     0.54558   0.50574   0.12381   0.00000  Uiso   1.00
H326   H     0.45909   0.41108   0.06547   0.00000  Uiso   1.00
H327   H     0.35696   0.38795   0.67176   0.00000  Uiso   1.00
H328   H     0.35176   0.47900   0.63860   0.00000  Uiso   1.00
H329   H     0.31353   0.43608   0.73535   0.00000  Uiso   1.00
H330   H     0.59120   0.54167   0.79436   0.00000  Uiso   1.00
H331   H     0.48608   0.43157   0.77219   0.00000  Uiso   1.00
H332   H     0.48598   0.52350   0.82850   0.00000  Uiso   1.00
H333   H     0.51575   0.67539   0.79009   0.00000  Uiso   1.00
H334   H     0.43300   0.64618   0.73303   0.00000  Uiso   1.00
H335   H     0.55996   0.71798   0.69438   0.00000  Uiso   1.00
H336   H     0.41325   0.50669   0.00467   0.00000  Uiso   1.00
H337   H     0.53619   0.59035   0.02146   0.00000  Uiso   1.00
H338   H     0.49866   0.63984  -0.03443   0.00000  Uiso   1.00
H339   H     0.32630   0.66379   0.13174   0.00000  Uiso   1.00
H340   H     0.25524   0.53803   0.11958   0.00000  Uiso   1.00
H341   H     0.31592   0.62425   0.03702   0.00000  Uiso   1.00
H342   H     0.48209   0.64337   0.57912   0.00000  Uiso   1.00
H343   H     0.44780   0.54015   0.52238   0.00000  Uiso   1.00
H344   H     0.37907   0.59147   0.52082   0.00000  Uiso   1.00
H345   H     0.34231   0.65795   0.28844   0.00000  Uiso   1.00
H346   H     0.40483   0.76845   0.24236   0.00000  Uiso   1.00
H347   H     0.35260   0.75097   0.33980   0.00000  Uiso   1.00
H348   H     0.39979   0.74718   0.54061   0.00000  Uiso   1.00
H349   H     0.33742   0.76398   0.62003   0.00000  Uiso   1.00
H350   H     0.37824   0.69785   0.63431   0.00000  Uiso   1.00
H351   H     0.45537   0.85956   0.75296   0.00000  Uiso   1.00
H352   H     0.58130   0.92903   0.74033   0.00000  Uiso   1.00
H353   H     0.51319   0.80596   0.74250   0.00000  Uiso   1.00
H354   H     0.71036   0.15231   0.13242   0.00000  Uiso   1.00
H355   H     0.67381   0.15826   0.23182   0.00000  Uiso   1.00
H356   H     0.69143   0.07056   0.19753   0.00000  Uiso   1.00
H357   H     0.97685   0.24975   0.15163   0.00000  Uiso   1.00
H358   H     0.89347   0.23523   0.08174   0.00000  Uiso   1.00
H359   H     0.86069   0.13452   0.13473   0.00000  Uiso   1.00
H360   H     0.91681   0.39241   0.26321   0.00000  Uiso   1.00
H361   H     0.79376   0.32639   0.26869   0.00000  Uiso   1.00
H362   H     0.86225   0.36606   0.17592   0.00000  Uiso   1.00
H363   H     0.66767   0.34958   0.26910   0.00000  Uiso   1.00
H364   H     0.58834   0.25297   0.22443   0.00000  Uiso   1.00
H365   H     0.63112   0.24106   0.30614   0.00000  Uiso   1.00
H366   H     0.74431   0.04396   0.70071   0.00000  Uiso   1.00
H367   H     0.84629   0.13530   0.74879   0.00000  Uiso   1.00
H368   H     0.73608   0.07346   0.80338   0.00000  Uiso   1.00
H369   H     0.91149  -0.01711   0.84280   0.00000  Uiso   1.00
H370   H     0.87006   0.04203   0.89751   0.00000  Uiso   1.00
H371   H     0.95964   0.09852   0.82466   0.00000  Uiso   1.00
H372   H     0.64642   0.82993   0.78629   0.00000  Uiso   1.00
H373   H     0.64374   0.91122   0.85035   0.00000  Uiso   1.00
H374   H     0.70480   0.86333   0.87886   0.00000  Uiso   1.00
H375   H     0.78682   0.12759   0.51567   0.00000  Uiso   1.00
H376   H     0.73409   0.19214   0.56576   0.00000  Uiso   1.00
H377   H     0.82298   0.19813   0.60185   0.00000  Uiso   1.00
H378   H     1.02944   0.44496   0.49746   0.00000  Uiso   1.00
H379   H     1.02279   0.36261   0.54679   0.00000  Uiso   1.00
H380   H     0.94222   0.39663   0.57843   0.00000  Uiso   1.00
H381   H     0.93424   0.61831   0.26235   0.00000  Uiso   1.00
H382   H     0.87277   0.49789   0.28821   0.00000  Uiso   1.00
H383   H     0.95403   0.59100   0.34443   0.00000  Uiso   1.00
H384   H     0.78567   0.33428   0.47260   0.00000  Uiso   1.00
H385   H     0.77665   0.26601   0.39445   0.00000  Uiso   1.00
H386   H     0.89209   0.39068   0.39807   0.00000  Uiso   1.00
H387   H     0.82033   0.47943   0.45385   0.00000  Uiso   1.00
H388   H     0.72140   0.39859   0.41358   0.00000  Uiso   1.00
H389   H     0.72337   0.46925   0.48895   0.00000  Uiso   1.00
H390   H     0.90878   0.60430   0.66169   0.00000  Uiso   1.00
H391   H     0.86646   0.61771   0.57860   0.00000  Uiso   1.00
H392   H     0.82732   0.50627   0.60958   0.00000  Uiso   1.00
H393   H     0.64151   0.43681   0.78280   0.00000  Uiso   1.00
H394   H     0.76046   0.46838   0.77653   0.00000  Uiso   1.00
H395   H     0.68533   0.38886   0.71079   0.00000  Uiso   1.00
H396   H     0.77760   0.48077   0.07460   0.00000  Uiso   1.00
H397   H     0.87000   0.53952   0.13335   0.00000  Uiso   1.00
H398   H     0.87970   0.57342   0.03423   0.00000  Uiso   1.00
H399   H     0.75783   0.60378  -0.01227   0.00000  Uiso   1.00
H400   H     0.80671   0.72586   0.01405   0.00000  Uiso   1.00
H401   H     0.69813   0.63157   0.06176   0.00000  Uiso   1.00
H402   H     0.93507   0.80919   0.10883   0.00000  Uiso   1.00
H403   H     0.99061   0.75957   0.06907   0.00000  Uiso   1.00
H404   H     0.95621   0.74614   0.17086   0.00000  Uiso   1.00
H405   H     0.50267   0.79910   0.13478   0.00000  Uiso   1.00
H406   H     0.49695   0.76818   0.03436   0.00000  Uiso   1.00
H407   H     0.59273   0.80107   0.08092   0.00000  Uiso   1.00
H408   H     0.68401   0.75240   0.11678   0.00000  Uiso   1.00
H409   H     0.61247   0.66195   0.19310   0.00000  Uiso   1.00
H410   H     0.72992   0.73166   0.19065   0.00000  Uiso   1.00
H411   H     0.74696   0.98273   0.22756   0.00000  Uiso   1.00
H412   H     0.67841   0.92042   0.15078   0.00000  Uiso   1.00
H413   H     0.78496   0.94587   0.14965   0.00000  Uiso   1.00
H414   H     0.87536   0.87472   0.20898   0.00000  Uiso   1.00
H415   H     0.88069   0.78730   0.25486   0.00000  Uiso   1.00
H416   H     0.96681   0.90982   0.26549   0.00000  Uiso   1.00
H417   H     0.72137   0.67780   0.88001   0.00000  Uiso   1.00
H418   H     0.66565   0.71270   0.82249   0.00000  Uiso   1.00
H419   H     0.76917   0.80231   0.86775   0.00000  Uiso   1.00
loop_
_geom_bond_atom_site_label_1
_geom_bond_atom_site_label_2
_geom_bond_distance
_geom_bond_site_symmetry_2
_ccdc_geom_bond_type
Si1    O54     1.617   .     S
Si1    O97     1.606   .     S
Si1    C52     1.854   1_545 S
Si1    O77     1.583   1_545 S
Si2    O57     1.546   .     S
Si2    O62     1.578   .     S
Si2    C53     1.775   1_455 S
Si2    O147    1.586   1_455 S
Si3    O54     1.592   .     S
Si3    O63     1.579   .     S
Si3    C55     1.826   1_554 S
Si3    O114    1.577   1_554 S
Si4    O58     1.598   .     S
Si4    O103    1.656   .     S
Si4    O84     1.629   1_545 S
Si4    O87     1.603   1_545 S
Si5    O59     1.546   .     S
Si5    O68     1.563   .     S
Si5    C56     1.841   1_455 S
Si5    O146    1.582   1_455 S
Si6    O57     1.533   .     S
Si6    O58     1.560   .     S
Si6    O69     1.593   .     S
Si6    O98     1.634   .     S
Si7    O59     1.553   .     S
Si7    C60     1.918   .     S
Si7    C61     1.899   .     S
Si7    O104    1.658   .     S
Si8    O62     1.623   .     S
Si8    O63     1.572   .     S
Si8    O64     1.626   .     S
Si8    O122    1.603   .     S
Si9    O64     1.613   .     S
Si9    C65     1.878   .     S
Si9    C66     1.822   1_554 S
Si9    C67     1.856   1_554 S
Si10   O68     1.567   .     S
Si10   O69     1.638   .     S
Si10   C70     1.852   .     S
Si10   O72     1.582   .     S
Si11   C71     1.892   .     S
Si11   O72     1.588   .     S
Si11   C80     1.835   .     S
Si11   O123    1.598   .     S
Si12   C73     1.900   .     S
Si12   C74     1.844   .     S
Si12   C75     1.837   .     S
Si12   O90     1.592   .     S
Si13   C76     1.921   .     S
Si13   O77     1.597   .     S
Si13   C78     1.851   1_554 S
Si13   C94     1.898   1_554 S
Si14   C79     1.799   .     S
Si14   C81     1.889   .     S
Si14   C82     1.915   .     S
Si14   O86     1.565   .     S
Si15   C83     1.849   .     S
Si15   O84     1.633   .     S
Si15   O177    1.586   1_455 S
Si15   O188    1.578   1_455 S
Si16   C85     1.848   .     S
Si16   O86     1.597   .     S
Si16   O87     1.538   .     S
Si16   C88     1.827   .     S
Si17   C89     1.859   .     S
Si17   O90     1.582   .     S
Si17   C91     1.844   .     S
Si17   C92     1.868   .     S
Si18   C93     1.879   .     S
Si18   C95     1.842   .     S
Si18   C96     1.831   1_455 S
Si18   O187    1.596   1_455 S
Si19   O97     1.619   .     S
Si19   O98     1.559   .     S
Si19   O105    1.599   .     S
Si19   O119    1.537   .     S
Si20   C99     1.869   .     S
Si20   O120    1.598   .     S
Si20   C100    1.819   1_554 S
Si20   C112    1.928   1_554 S
Si21   C101    1.875   .     S
Si21   C106    1.916   .     S
Si21   C102    1.878   1_545 S
Si21   O138    1.575   1_545 S
Si22   O103    1.592   .     S
Si22   O104    1.599   .     S
Si22   O115    1.604   .     S
Si22   O124    1.617   .     S
Si23   O105    1.569   .     S
Si23   C107    1.858   .     S
Si23   O125    1.566   .     S
Si23   C145    1.962   .     S
Si24   C108    1.884   .     S
Si24   O116    1.634   .     S
Si24   C109    1.857   1_545 S
Si24   O141    1.692   1_545 S
Si25   C110    1.912   .     S
Si25   C111    1.838   .     S
Si25   C113    1.850   .     S
Si25   O114    1.597   .     S
Si26   O115    1.627   .     S
Si26   O116    1.593   .     S
Si26   C117    1.832   .     S
Si26   C118    1.822   .     S
Si27   O119    1.598   .     S
Si27   O120    1.628   .     S
Si27   C121    1.846   .     S
Si27   O153    1.596   .     S
Si28   O122    1.603   .     S
Si28   O123    1.593   .     S
Si28   O126    1.670   .     S
Si28   O131    1.621   .     S
Si29   O124    1.663   .     S
Si29   O125    1.621   .     S
Si29   O127    1.605   .     S
Si29   O158    1.626   .     S
Si30   O126    1.620   .     S
Si30   O127    1.630   .     S
Si30   O135    1.645   .     S
Si30   O154    1.607   .     S
Si31   C128    1.864   .     S
Si31   C129    1.852   .     S
Si31   C130    1.870   .     S
Si31   O159    1.664   .     S
Si32   O131    1.589   .     S
Si32   C132    1.910   .     S
Si32   C133    1.924   .     S
Si32   C171    1.884   .     S
Si33   C134    1.846   .     S
Si33   O135    1.607   .     S
Si33   O137    1.620   .     S
Si33   O178    1.626   .     S
Si34   C136    1.830   .     S
Si34   O137    1.603   .     S
Si34   O138    1.566   .     S
Si34   O174    1.579   .     S
Si35   C139    1.874   .     S
Si35   C140    1.884   .     S
Si35   O141    1.630   .     S
Si35   O180    1.624   .     S
Si36   C142    1.784   .     S
Si36   C143    1.886   .     S
Si36   C144    1.871   .     S
Si36   O148    1.605   .     S
Si37   O146    1.609   .     S
Si37   O149    1.642   .     S
Si37   O179    1.628   1_545 S
Si37   O184    1.557   1_545 S
Si38   O147    1.577   .     S
Si38   O148    1.626   .     S
Si38   O149    1.606   .     S
Si38   O156    1.612   .     S
Si39   C150    1.848   .     S
Si39   C151    1.907   .     S
Si39   C152    1.823   1_545 S
Si39   O191    1.610   1_545 S
Si40   O153    1.610   .     S
Si40   O154    1.593   .     S
Si40   O161    1.608   .     S
Si40   O167    1.586   .     S
Si41   C155    1.841   .     S
Si41   O156    1.595   .     S
Si41   C157    1.823   .     S
Si41   C162    1.844   .     S
Si42   O158    1.593   .     S
Si42   O159    1.661   .     S
Si42   O165    1.653   .     S
Si42   O175    1.651   .     S
Si43   C160    1.788   .     S
Si43   O161    1.541   .     S
Si43   C163    1.819   .     S
Si43   O176    1.611   .     S
Si44   C164    1.774   .     S
Si44   O165    1.565   .     S
Si44   C166    1.850   .     S
Si44   O186    1.568   .     S
Si45   O167    1.636   .     S
Si45   C168    1.870   .     S
Si45   C169    1.883   .     S
Si45   C170    1.800   .     S
Si46   C172    1.836   .     S
Si46   C173    1.859   .     S
Si46   O174    1.596   .     S
Si46   O182    1.563   .     S
Si47   O175    1.568   .     S
Si47   O176    1.580   .     S
Si47   O177    1.637   .     S
Si47   O183    1.596   .     S
Si48   O178    1.624   .     S
Si48   O179    1.553   .     S
Si48   O180    1.666   .     S
Si48   O189    1.623   .     S
Si49   C181    1.895   .     S
Si49   O182    1.624   .     S
Si49   O183    1.607   .     S
Si49   O184    1.555   .     S
Si50   C185    1.828   .     S
Si50   O186    1.587   .     S
Si50   O187    1.580   .     S
Si50   O190    1.590   .     S
Si51   O188    1.637   .     S
Si51   O189    1.633   .     S
Si51   O190    1.598   .     S
Si51   O191    1.590   .     S
C52    H192    1.137   .     S
C52    H193    1.060   .     S
C52    H194    1.121   .     S
C52    Si1     1.854   1_565 S
C53    H195    1.108   .     S
C53    H196    1.083   .     S
C53    H197    1.125   .     S
C53    Si2     1.775   1_655 S
C55    H198    1.105   .     S
C55    H199    1.096   .     S
C55    H200    1.133   .     S
C55    Si3     1.826   1_556 S
C56    H201    1.065   .     S
C56    H202    1.059   .     S
C56    H203    1.039   .     S
C56    Si5     1.841   1_655 S
C60    H204    1.091   .     S
C60    H205    1.103   .     S
C60    H206    1.138   .     S
C61    H207    1.087   .     S
C61    H208    1.056   .     S
C61    H209    1.084   .     S
C65    H210    1.105   .     S
C65    H211    1.092   .     S
C65    H212    1.111   .     S
C66    H213    1.038   .     S
C66    H214    1.074   .     S
C66    H215    1.075   .     S
C66    Si9     1.822   1_556 S
C67    H216    1.099   .     S
C67    H217    1.125   .     S
C67    H218    1.123   .     S
C67    Si9     1.856   1_556 S
C70    H219    1.088   .     S
C70    H220    1.100   .     S
C70    H221    1.101   .     S
C71    H222    1.101   .     S
C71    H223    1.141   .     S
C71    H224    1.101   .     S
C73    H225    1.083   .     S
C73    H226    1.121   .     S
C73    H227    1.125   .     S
C74    H228    1.123   .     S
C74    H229    1.093   .     S
C74    H230    1.171   .     S
C75    H231    1.088   .     S
C75    H232    1.107   .     S
C75    H233    1.109   .     S
C76    H234    1.107   .     S
C76    H235    1.104   .     S
C76    H236    1.102   .     S
O77    Si1     1.583   1_565 S
C78    H237    1.097   .     S
C78    H238    1.133   .     S
C78    H239    1.056   .     S
C78    Si13    1.851   1_556 S
C79    H240    1.143   .     S
C79    H241    1.105   .     S
C79    H242    1.111   .     S
C80    H243    1.180   .     S
C80    H244    1.122   .     S
C80    H245    1.144   .     S
C81    H246    1.098   .     S
C81    H247    1.094   .     S
C81    H248    1.123   .     S
C82    H249    1.063   .     S
C82    H250    1.053   .     S
C82    H251    1.102   .     S
C83    H252    1.107   .     S
C83    H253    1.058   .     S
C83    H254    1.156   .     S
O84    Si4     1.629   1_565 S
C85    H255    1.081   .     S
C85    H256    1.126   .     S
C85    H257    1.069   .     S
O87    Si4     1.603   1_565 S
C88    H258    1.111   .     S
C88    H259    1.156   .     S
C88    H260    1.147   .     S
C89    H261    1.108   .     S
C89    H262    1.117   .     S
C89    H263    1.164   .     S
C91    H264    1.090   .     S
C91    H265    1.097   .     S
C91    H266    1.111   .     S
C92    H267    1.062   .     S
C92    H268    1.106   .     S
C92    H269    1.056   .     S
C93    H270    1.132   .     S
C93    H271    1.135   .     S
C93    H272    1.100   .     S
C94    H273    1.084   .     S
C94    H274    1.163   .     S
C94    H275    1.111   .     S
C94    Si13    1.898   1_556 S
C95    H276    1.070   .     S
C95    H277    1.140   .     S
C95    H278    1.117   .     S
C96    H279    1.095   .     S
C96    H280    1.150   .     S
C96    H281    1.144   .     S
C96    Si18    1.831   1_655 S
C99    H282    1.096   .     S
C99    H283    1.127   .     S
C99    H284    1.146   .     S
C100   H285    1.110   .     S
C100   H286    1.105   .     S
C100   H287    1.070   .     S
C100   Si20    1.819   1_556 S
C101   H288    1.141   .     S
C101   H289    1.159   .     S
C101   H290    1.115   .     S
C102   H291    1.016   .     S
C102   H292    1.049   .     S
C102   H293    1.122   .     S
C102   Si21    1.878   1_565 S
C106   H294    1.136   .     S
C106   H295    1.097   .     S
C106   H296    1.120   .     S
C107   H297    1.103   .     S
C107   H298    1.073   .     S
C107   H299    1.062   .     S
C108   H300    1.126   .     S
C108   H301    1.099   .     S
C108   H302    1.148   .     S
C109   H303    1.139   .     S
C109   H304    1.107   .     S
C109   H305    1.089   .     S
C109   Si24    1.857   1_565 S
C110   H306    1.113   .     S
C110   H307    1.087   .     S
C110   H308    1.137   .     S
C111   H309    1.114   .     S
C111   H310    1.079   .     S
C111   H311    1.128   .     S
C112   H312    1.104   .     S
C112   H313    1.090   .     S
C112   H314    1.096   .     S
C112   Si20    1.928   1_556 S
C113   H315    1.112   .     S
C113   H316    1.088   .     S
C113   H317    1.088   .     S
O114   Si3     1.577   1_556 S
C117   H318    1.092   .     S
C117   H319    1.159   .     S
C117   H320    1.097   .     S
C118   H321    1.070   .     S
C118   H322    1.201   .     S
C118   H323    1.069   .     S
C121   H324    1.098   .     S
C121   H325    1.083   .     S
C121   H326    1.093   .     S
C128   H327    1.090   .     S
C128   H328    1.136   .     S
C128   H329    1.152   .     S
C129   H330    1.089   .     S
C129   H331    1.065   .     S
C129   H332    1.143   .     S
C130   H333    1.086   .     S
C130   H334    1.132   .     S
C130   H335    1.138   .     S
C132   H336    1.191   .     S
C132   H337    1.079   .     S
C132   H338    1.132   .     S
C133   H339    1.079   .     S
C133   H340    1.101   .     S
C133   H341    1.124   .     S
C134   H342    1.130   .     S
C134   H343    1.150   .     S
C134   H344    1.146   .     S
C136   H345    1.083   .     S
C136   H346    1.108   .     S
C136   H347    1.066   .     S
O138   Si21    1.575   1_565 S
C139   H348    1.142   .     S
C139   H349    1.102   .     S
C139   H350    1.084   .     S
C140   H351    1.083   .     S
C140   H352    1.094   .     S
C140   H353    1.144   .     S
O141   Si24    1.692   1_565 S
C142   H354    1.117   .     S
C142   H355    1.132   .     S
C142   H356    1.095   .     S
C143   H357    1.106   .     S
C143   H358    1.164   .     S
C143   H359    1.133   .     S
C144   H360    1.074   .     S
C144   H361    1.172   .     S
C144   H362    1.104   .     S
C145   H363    1.049   .     S
C145   H364    1.072   .     S
C145   H365    1.084   .     S
O146   Si5     1.582   1_655 S
O147   Si2     1.586   1_655 S
C150   H366    1.145   .     S
C150   H367    1.077   .     S
C150   H368    1.122   .     S
C151   H369    1.098   .     S
C151   H370    1.090   .     S
C151   H371    1.084   .     S
C152   H372    1.102   .     S
C152   H373    1.127   .     S
C152   H374    1.161   .     S
C152   Si39    1.823   1_565 S
C155   H375    1.132   .     S
C155   H376    1.134   .     S
C155   H377    1.124   .     S
C157   H378    1.105   .     S
C157   H379    1.075   .     S
C157   H380    1.099   .     S
C160   H381    1.086   .     S
C160   H382    1.121   .     S
C160   H383    1.131   .     S
C162   H384    1.124   .     S
C162   H385    1.120   .     S
C162   H386    1.139   .     S
C163   H387    1.066   .     S
C163   H388    1.053   .     S
C163   H389    1.110   .     S
C164   H390    1.133   .     S
C164   H391    1.087   .     S
C164   H392    1.085   .     S
C166   H393    1.118   .     S
C166   H394    1.117   .     S
C166   H395    1.120   .     S
C168   H396    1.081   .     S
C168   H397    1.110   .     S
C168   H398    1.051   .     S
C169   H399    1.142   .     S
C169   H400    1.100   .     S
C169   H401    1.123   .     S
C170   H402    1.107   .     S
C170   H403    1.065   .     S
C170   H404    1.095   .     S
C171   H405    1.100   .     S
C171   H406    1.110   .     S
C171   H407    1.134   .     S
C172   H408    1.110   .     S
C172   H409    1.087   .     S
C172   H410    1.079   .     S
C173   H411    1.066   .     S
C173   H412    1.093   .     S
C173   H413    1.060   .     S
O177   Si15    1.586   1_655 S
O179   Si37    1.628   1_565 S
C181   H414    1.108   .     S
C181   H415    1.065   .     S
C181   H416    1.157   .     S
O184   Si37    1.557   1_565 S
C185   H417    1.121   .     S
C185   H418    1.079   .     S
C185   H419    1.147   .     S
O187   Si18    1.596   1_655 S
O188   Si15    1.578   1_655 S
O191   Si39    1.610   1_565 S
