data_333-15-11-10-15-30-6
_audit_creation_date              2025-03-07
_audit_creation_method            'Materials Studio'
_symmetry_space_group_name_H-M    'P1'
_symmetry_Int_Tables_number       1
_symmetry_cell_setting            triclinic
loop_
_symmetry_equiv_pos_as_xyz
  x,y,z
_cell_length_a                    15.8165
_cell_length_b                    17.9522
_cell_length_c                    18.3037
_cell_angle_alpha                 89.2278
_cell_angle_beta                  90.2515
_cell_angle_gamma                 125.2313
loop_
_atom_site_label
_atom_site_type_symbol
_atom_site_fract_x
_atom_site_fract_y
_atom_site_fract_z
_atom_site_U_iso_or_equiv
_atom_site_adp_type
_atom_site_occupancy
Si1    Si   -0.04447   0.07706   0.21949   0.00000  Uiso   1.00
Si2    Si    0.13992   0.01007   0.46846   0.00000  Uiso   1.00
Si3    Si    0.09787   0.06019   0.31865   0.00000  Uiso   1.00
Si4    Si    0.24880   0.16790   0.82290   0.00000  Uiso   1.00
Si5    Si    0.00075   0.21744   0.89995   0.00000  Uiso   1.00
Si6    Si    0.18758   0.22617   0.68472   0.00000  Uiso   1.00
Si7    Si    0.15278   0.52163  -0.04783   0.00000  Uiso   1.00
Si8    Si    0.15102   0.35673   0.48214   0.00000  Uiso   1.00
Si9    Si   -0.03726   0.46988   0.59767   0.00000  Uiso   1.00
Si10   Si    0.16298   0.35369   0.77962   0.00000  Uiso   1.00
Si11   Si   -0.04818   0.49484   0.88080   0.00000  Uiso   1.00
Si12   Si    0.13482   0.48902   0.70130   0.00000  Uiso   1.00
Si13   Si    0.20625   0.65692   0.07279   0.00000  Uiso   1.00
Si14   Si    0.04052   0.85425   0.58331   0.00000  Uiso   1.00
Si15   Si    0.23208   0.91827   0.39011   0.00000  Uiso   1.00
Si16   Si    0.10336   0.62863   0.76613   0.00000  Uiso   1.00
Si17   Si   -0.00756   0.77805   0.87213   0.00000  Uiso   1.00
Si18   Si    0.42708   0.05778  -0.01355   0.00000  Uiso   1.00
Si19   Si    0.28798   0.19568   0.55777   0.00000  Uiso   1.00
Si20   Si    0.55749   0.30088   0.33583   0.00000  Uiso   1.00
Si21   Si    0.42445   0.00225   0.72546   0.00000  Uiso   1.00
Si22   Si    0.42016   0.13896   0.62559   0.00000  Uiso   1.00
Si23   Si    0.43751   0.35157   0.06579   0.00000  Uiso   1.00
Si24   Si    0.36456   0.50398   0.23116   0.00000  Uiso   1.00
Si25   Si    0.48776   0.51964  -0.01964   0.00000  Uiso   1.00
Si26   Si    0.48435   0.35603   0.46506   0.00000  Uiso   1.00
Si27   Si    0.29305   0.49274   0.59444   0.00000  Uiso   1.00
Si28   Si    0.48317   0.50130   0.37346   0.00000  Uiso   1.00
Si29   Si    0.32792   0.51889   0.87074   0.00000  Uiso   1.00
Si30   Si    0.48036   0.49735   0.66827   0.00000  Uiso   1.00
Si31   Si    0.52529   0.63948   0.11607   0.00000  Uiso   1.00
Si32   Si    0.58555   0.79414   0.01451   0.00000  Uiso   1.00
Si33   Si    0.44667   0.61726   0.47148   0.00000  Uiso   1.00
Si34   Si    0.51446   0.76007   0.35505   0.00000  Uiso   1.00
Si35   Si    0.50915   0.64379   0.76604   0.00000  Uiso   1.00
Si36   Si    0.30688   0.81288   0.80027   0.00000  Uiso   1.00
Si37   Si    0.79577   0.12092   0.23280   0.00000  Uiso   1.00
Si38   Si    0.57715   0.13447   0.85104   0.00000  Uiso   1.00
Si39   Si    0.78922   0.19653   0.70307   0.00000  Uiso   1.00
Si40   Si    0.77752   0.36101   0.07109   0.00000  Uiso   1.00
Si41   Si    0.83777   0.53490   0.00005   0.00000  Uiso   1.00
Si42   Si    0.83129   0.34172   0.47369   0.00000  Uiso   1.00
Si43   Si    0.65524   0.50694   0.57797   0.00000  Uiso   1.00
Si44   Si    0.76095   0.32447   0.79278   0.00000  Uiso   1.00
Si45   Si    0.67153   0.52762   0.89784   0.00000  Uiso   1.00
Si46   Si    0.78527   0.46866   0.68420   0.00000  Uiso   1.00
Si47   Si    0.89336   0.65012   0.13283   0.00000  Uiso   1.00
Si48   Si    0.65309   0.76009   0.23812   0.00000  Uiso   1.00
Si49   Si    0.86408   0.67262   0.51084   0.00000  Uiso   1.00
Si50   Si    0.82449   0.63535   0.77315   0.00000  Uiso   1.00
Si51   Si    0.86734   0.80484   0.68389   0.00000  Uiso   1.00
C52    C     0.05153   0.19777   0.20397   0.00000  Uiso   1.00
C53    C     0.93376   0.01706   0.13336   0.00000  Uiso   1.00
O54    O    -0.00371   0.04609   0.28619   0.00000  Uiso   1.00
O55    O     0.08058   0.01064   0.39683   0.00000  Uiso   1.00
C56    C     0.13733   0.01260   0.24767   0.00000  Uiso   1.00
C57    C     0.31151   0.25556   0.90027   0.00000  Uiso   1.00
C58    C     0.31598   1.11323   0.80755   0.00000  Uiso   1.00
C59    C     0.05514   0.20735   0.98852   0.00000  Uiso   1.00
C60    C     0.92597   0.26453   0.91801   0.00000  Uiso   1.00
C61    C     0.89800   0.09392   0.88098   0.00000  Uiso   1.00
C62    C     0.06000   0.12549   0.68017   0.00000  Uiso   1.00
O63    O     0.24959   0.21304   0.74830   0.00000  Uiso   1.00
C64    C     0.15187   0.44784   0.02368   0.00000  Uiso   1.00
C65    C     0.02675   0.23996   0.49012   0.00000  Uiso   1.00
C66    C     0.19134   0.18277   0.32296   0.00000  Uiso   1.00
C67    C     0.24609   0.34323   0.43425   0.00000  Uiso   1.00
C68    C     0.13146   0.43130   0.42815   0.00000  Uiso   1.00
C69    C     0.06722   0.56975   0.54299   0.00000  Uiso   1.00
O70    O     0.07731   0.26531   0.83373   0.00000  Uiso   1.00
O71    O     0.18473   0.31208   0.70792   0.00000  Uiso   1.00
O72    O     0.04073   0.47999   0.91273   0.00000  Uiso   1.00
O73    O     0.02887   0.45141   0.65487   0.00000  Uiso   1.00
O74    O     0.11785   0.40877   0.75502   0.00000  Uiso   1.00
C75    C     0.12494   0.57936   0.15248   0.00000  Uiso   1.00
O76    O     0.18400   0.61322  -0.00668   0.00000  Uiso   1.00
C77    C     0.19752   0.75278   0.08015   0.00000  Uiso   1.00
C78    C     0.33646   0.70292   0.09944   0.00000  Uiso   1.00
C79    C     0.17397   0.89897   0.61593   0.00000  Uiso   1.00
O80    O     0.05903   0.92819   0.52325   0.00000  Uiso   1.00
C81    C     0.11585   0.83742   0.33921   0.00000  Uiso   1.00
C82    C     0.25481   0.84958   0.45520   0.00000  Uiso   1.00
O83    O     0.22475   0.99204   0.43858   0.00000  Uiso   1.00
C84    C     0.34200   0.97241   0.32728   0.00000  Uiso   1.00
O85    O     0.00656   0.57216   0.81867   0.00000  Uiso   1.00
O86    O     0.14806   0.56968   0.74795   0.00000  Uiso   1.00
C87    C     0.07414   0.67572   0.68587   0.00000  Uiso   1.00
C88    C     0.07187   0.76116   0.93786   0.00000  Uiso   1.00
C89    C     0.08876   0.87543   0.81279   0.00000  Uiso   1.00
C90    C     0.11461   1.08935   0.84773   0.00000  Uiso   1.00
C91    C     0.90662   0.80060   0.92717   0.00000  Uiso   1.00
C92    C     0.47262  -0.00779   0.02644   0.00000  Uiso   1.00
C93    C     0.28628  -0.01323   0.96329   0.00000  Uiso   1.00
O94    O     0.20030   0.11172   0.50397   0.00000  Uiso   1.00
O95    O     0.23852   0.23500   0.60727   0.00000  Uiso   1.00
C96    C     0.43627   0.25622   0.28365   0.00000  Uiso   1.00
C97    C     0.58586   0.21638   0.33037   0.00000  Uiso   1.00
C98    C     0.67444   0.41560   0.30650   0.00000  Uiso   1.00
C99    C     0.47144   0.96586   0.65138   0.00000  Uiso   1.00
O100   O     0.33187   0.15719   0.61111   0.00000  Uiso   1.00
O101   O     0.38514   0.05723   0.68372   0.00000  Uiso   1.00
C102   C     0.52627   0.24452   0.66486   0.00000  Uiso   1.00
C103   C     0.45445   0.11323   0.53786   0.00000  Uiso   1.00
C104   C     0.30056   0.25072   0.08681   0.00000  Uiso   1.00
C105   C     0.43167   0.12190   0.06998   0.00000  Uiso   1.00
C106   C     0.52042   0.32086   0.02690   0.00000  Uiso   1.00
C107   C     0.50418   0.41247   0.14998   0.00000  Uiso   1.00
C108   C     0.25858   0.39447   0.18705   0.00000  Uiso   1.00
C109   C     0.30079   0.55187   0.27755   0.00000  Uiso   1.00
O110   O     0.42964   0.42094   0.01222   0.00000  Uiso   1.00
O111   O     0.38052   0.28367   0.51183   0.00000  Uiso   1.00
O112   O     0.52334   0.30500   0.41940   0.00000  Uiso   1.00
O113   O     0.19814   0.40194   0.55767   0.00000  Uiso   1.00
O114   O     0.23703   0.52306   0.65008   0.00000  Uiso   1.00
O115   O     0.43969   0.49640   0.29010   0.00000  Uiso   1.00
O116   O     0.45466   0.40358   0.40567   0.00000  Uiso   1.00
C117   C     0.62403   0.58262   0.37185   0.00000  Uiso   1.00
O118   O     0.26891   0.42456   0.82650   0.00000  Uiso   1.00
O119   O     0.39677   0.52209   0.93878   0.00000  Uiso   1.00
O120   O     0.24822   0.54507   0.90208   0.00000  Uiso   1.00
O121   O     0.37134   0.47895   0.63305   0.00000  Uiso   1.00
C122   C     0.44452   0.39471   0.71523   0.00000  Uiso   1.00
O123   O     0.42150   0.57142   0.16205   0.00000  Uiso   1.00
O124   O     0.53515   0.58300   0.05304   0.00000  Uiso   1.00
O125   O     0.52974   0.72175   0.07931   0.00000  Uiso   1.00
C126   C     0.61869   0.90808   0.03884   0.00000  Uiso   1.00
C127   C     0.70889   0.80334   0.99491   0.00000  Uiso   1.00
O128   O     0.35557   0.57309   0.53375   0.00000  Uiso   1.00
O129   O     0.43412   0.53777   0.42829   0.00000  Uiso   1.00
C130   C     0.57085   0.68568   0.51578   0.00000  Uiso   1.00
C131   C     0.44376   0.80476   0.31121   0.00000  Uiso   1.00
O132   O     0.44750   0.68314   0.41371   0.00000  Uiso   1.00
C133   C     0.62148   0.86011   0.39861   0.00000  Uiso   1.00
O134   O     0.40878   0.59893   0.81132   0.00000  Uiso   1.00
O135   O     0.51568   0.56476   0.73287   0.00000  Uiso   1.00
C136   C     0.51962   0.71448   0.69063   0.00000  Uiso   1.00
C137   C     0.62525   0.71462   0.81875   0.00000  Uiso   1.00
O138   O     0.18787   0.72249   0.80595   0.00000  Uiso   1.00
C139   C     0.38644   0.78246   0.75069   0.00000  Uiso   1.00
C140   C     0.50061   0.75157   0.93463   0.00000  Uiso   1.00
O141   O     0.33153   0.90629   0.76498   0.00000  Uiso   1.00
C142   C     0.36410   0.84047   0.88576   0.00000  Uiso   1.00
O143   O     0.84785   0.06688   0.23846   0.00000  Uiso   1.00
C144   C     0.76763   0.13333   0.13491   0.00000  Uiso   1.00
C145   C     0.67317   0.05950   0.28960   0.00000  Uiso   1.00
O146   O     0.51519   0.07191   0.77919   0.00000  Uiso   1.00
C147   C     0.65204   0.09931   0.89054   0.00000  Uiso   1.00
O148   O     0.49759   0.11878   0.91516   0.00000  Uiso   1.00
C149   C     0.91681   0.22954   0.66973   0.00000  Uiso   1.00
C150   C     0.70166   0.19351   0.63530   0.00000  Uiso   1.00
C151   C     0.72312   0.07388   0.73317   0.00000  Uiso   1.00
C152   C     0.71081   0.27078  -0.00064   0.00000  Uiso   1.00
C153   C     0.90983   0.38887   0.08104   0.00000  Uiso   1.00
C154   C     0.70600   0.31808   0.15781   0.00000  Uiso   1.00
O155   O     0.92037   0.53642   0.94303   0.00000  Uiso   1.00
O156   O     0.77912   0.44628   0.04666   0.00000  Uiso   1.00
C157   C     0.71823   0.34747   0.48819   0.00000  Uiso   1.00
C158   C     0.88223   0.23227   0.26973   0.00000  Uiso   1.00
C159   C     0.77675   0.21982   0.46115   0.00000  Uiso   1.00
C160   C     0.89435   0.41051   0.38616   0.00000  Uiso   1.00
O161   O     0.90136   0.38089   0.54706   0.00000  Uiso   1.00
O162   O     0.58625   0.43620   0.51240   0.00000  Uiso   1.00
O163   O     0.57479   0.52404   0.61325   0.00000  Uiso   1.00
O164   O     0.65473   0.24486   0.83137   0.00000  Uiso   1.00
O165   O     0.80415   0.27079   0.76201   0.00000  Uiso   1.00
O166   O     0.84786   0.39810   0.85125   0.00000  Uiso   1.00
C167   C     0.62067   0.41322   0.86375   0.00000  Uiso   1.00
O168   O     0.75764   0.54988   0.95764   0.00000  Uiso   1.00
O169   O     0.57809   0.53517   0.92434   0.00000  Uiso   1.00
O170   O     0.87741   0.48209   0.63498   0.00000  Uiso   1.00
O171   O     0.69357   0.46162   0.63554   0.00000  Uiso   1.00
O172   O     0.73701   0.37487   0.72990   0.00000  Uiso   1.00
C173   C     0.90056   0.58368   0.20991   0.00000  Uiso   1.00
O174   O     0.89871   0.61453   0.05641   0.00000  Uiso   1.00
C175   C     0.76359   0.62861   0.14523   0.00000  Uiso   1.00
C176   C     0.98867   0.78253   0.14419   0.00000  Uiso   1.00
O177   O     0.61616   0.69082   0.17326   0.00000  Uiso   1.00
C178   C     0.77881   0.79523   0.27443   0.00000  Uiso   1.00
C179   C     0.67464   0.86655   0.20098   0.00000  Uiso   1.00
O180   O     0.56225   0.72926   0.29942   0.00000  Uiso   1.00
O181   O     0.75873   0.60742   0.55500   0.00000  Uiso   1.00
C182   C     0.90082   0.60826   0.46071   0.00000  Uiso   1.00
C183   C     0.84635   0.73653   0.44068   0.00000  Uiso   1.00
O184   O     0.96784   0.75103   0.55362   0.00000  Uiso   1.00
O185   O     0.72898   0.59217   0.82523   0.00000  Uiso   1.00
O186   O     0.83295   0.55528   0.73862   0.00000  Uiso   1.00
O187   O     0.92460   0.69411   0.82169   0.00000  Uiso   1.00
O188   O     0.97932   0.85555   0.64910   0.00000  Uiso   1.00
C189   C     0.78494   0.79860   0.60883   0.00000  Uiso   1.00
O190   O     0.82343   0.70101   0.71140   0.00000  Uiso   1.00
C191   C     0.87155   0.88245   0.75536   0.00000  Uiso   1.00
H192   H     0.01712   0.22218   0.16436   0.00000  Uiso   1.00
H193   H     0.11944   0.20768   0.17941   0.00000  Uiso   1.00
H194   H     0.07312   0.23885   0.25266   0.00000  Uiso   1.00
H195   H     1.00890   0.05349   0.10475   0.00000  Uiso   1.00
H196   H     0.87234   0.01236   0.09608   0.00000  Uiso   1.00
H197   H     0.90920  -0.05721   0.14190   0.00000  Uiso   1.00
H198   H     0.20000   0.00638   0.26373   0.00000  Uiso   1.00
H199   H     0.16129   0.05519   0.19581   0.00000  Uiso   1.00
H200   H     0.07227  -0.05560   0.23060   0.00000  Uiso   1.00
H201   H     0.37971   0.31878   0.87706   0.00000  Uiso   1.00
H202   H     0.32035   0.21672   0.94181   0.00000  Uiso   1.00
H203   H     0.25936   0.27219   0.91914   0.00000  Uiso   1.00
H204   H     0.33921   1.09777   0.85766   0.00000  Uiso   1.00
H205   H     0.38713   1.16654   0.77803   0.00000  Uiso   1.00
H206   H     0.26437   1.05183   0.77703   0.00000  Uiso   1.00
H207   H     0.06169   0.14907   0.98994   0.00000  Uiso   1.00
H208   H    -0.00546   0.19782   1.02487   0.00000  Uiso   1.00
H209   H     0.13200   0.26043   0.99687   0.00000  Uiso   1.00
H210   H     0.89802   0.27189   0.86800   0.00000  Uiso   1.00
H211   H     0.97447   0.33159   0.94083   0.00000  Uiso   1.00
H212   H     0.85674   0.21071   0.95038   0.00000  Uiso   1.00
H213   H     0.91437   0.04395   0.89427   0.00000  Uiso   1.00
H214   H     0.88405   0.09102   0.82253   0.00000  Uiso   1.00
H215   H     0.82888   0.06214   0.91050   0.00000  Uiso   1.00
H216   H     0.02894   0.12805   0.62908   0.00000  Uiso   1.00
H217   H     0.00742   0.12096   0.72021   0.00000  Uiso   1.00
H218   H     0.05610   0.06056   0.67716   0.00000  Uiso   1.00
H219   H     0.13763   0.38940  -0.00370   0.00000  Uiso   1.00
H220   H     0.09531   0.43169   0.06609   0.00000  Uiso   1.00
H221   H     0.23104   0.49220   0.04547   0.00000  Uiso   1.00
H222   H     0.04569   0.20060   0.52242   0.00000  Uiso   1.00
H223   H     0.00146   0.21061   0.43308   0.00000  Uiso   1.00
H224   H    -0.03531   0.24455   0.51965   0.00000  Uiso   1.00
H225   H     0.14564   0.21035   0.33825   0.00000  Uiso   1.00
H226   H     0.23340   0.20953   0.27193   0.00000  Uiso   1.00
H227   H     0.24776   0.19145   0.36461   0.00000  Uiso   1.00
H228   H     0.25749   0.36824   0.37396   0.00000  Uiso   1.00
H229   H     0.21387   0.27117   0.43741   0.00000  Uiso   1.00
H230   H     0.31582   0.38088   0.47131   0.00000  Uiso   1.00
H231   H     0.07335   0.43356   0.45951   0.00000  Uiso   1.00
H232   H     0.10273   0.40183   0.37495   0.00000  Uiso   1.00
H233   H     0.20385   0.50218   0.43272   0.00000  Uiso   1.00
H234   H     0.04347   0.55217   0.48684   0.00000  Uiso   1.00
H235   H     0.14912   0.58498   0.54975   0.00000  Uiso   1.00
H236   H     0.06556   0.62672   0.55776   0.00000  Uiso   1.00
H237   H     0.12576   0.51855   0.15394   0.00000  Uiso   1.00
H238   H     0.04832   0.56545   0.14712   0.00000  Uiso   1.00
H239   H     0.15068   0.60893   0.20872   0.00000  Uiso   1.00
H240   H     0.23777   0.79090   0.12942   0.00000  Uiso   1.00
H241   H     0.11351   0.72124   0.07973   0.00000  Uiso   1.00
H242   H     0.23879   0.80144   0.03303   0.00000  Uiso   1.00
H243   H     0.34921   0.71413   0.15929   0.00000  Uiso   1.00
H244   H     0.39411   0.76372   0.06816   0.00000  Uiso   1.00
H245   H     0.34330   0.64486   0.08962   0.00000  Uiso   1.00
H246   H     0.23401   0.95059   0.58026   0.00000  Uiso   1.00
H247   H     0.19453   0.84994   0.61877   0.00000  Uiso   1.00
H248   H     0.18257   0.92742   0.66817   0.00000  Uiso   1.00
H249   H     0.13505   0.83332   0.28127   0.00000  Uiso   1.00
H250   H     0.06676   0.85956   0.33236   0.00000  Uiso   1.00
H251   H     0.07045   0.76895   0.36328   0.00000  Uiso   1.00
H252   H     0.32464   0.89169   0.48257   0.00000  Uiso   1.00
H253   H     0.24906   0.79808   0.42360   0.00000  Uiso   1.00
H254   H     0.18837   0.80501   0.49572   0.00000  Uiso   1.00
H255   H     0.33619   0.92363   0.29000   0.00000  Uiso   1.00
H256   H     0.41166   1.00799   0.35912   0.00000  Uiso   1.00
H257   H     0.33980   1.02534   0.29467   0.00000  Uiso   1.00
H258   H    -0.00356   0.63676   0.66706   0.00000  Uiso   1.00
H259   H     0.13650   0.70189   0.64632   0.00000  Uiso   1.00
H260   H     0.08656   0.73964   0.70604   0.00000  Uiso   1.00
H261   H     0.15107   0.79377   0.91449   0.00000  Uiso   1.00
H262   H     0.04549   0.69190   0.94630   0.00000  Uiso   1.00
H263   H     0.07328   0.79342   0.98575   0.00000  Uiso   1.00
H264   H     0.05538   0.90088   0.77436   0.00000  Uiso   1.00
H265   H     0.13828   0.86448   0.77856   0.00000  Uiso   1.00
H266   H     0.14408   0.93736   0.84398   0.00000  Uiso   1.00
H267   H     0.07608   1.12432   0.83343   0.00000  Uiso   1.00
H268   H     0.09838   1.07002   0.90688   0.00000  Uiso   1.00
H269   H     0.07939   1.02531   0.81299   0.00000  Uiso   1.00
H270   H     0.82319   0.75715   0.91171   0.00000  Uiso   1.00
H271   H     0.93915   0.87664   0.92567   0.00000  Uiso   1.00
H272   H     0.90732   0.78004   0.98464   0.00000  Uiso   1.00
H273   H     0.40720  -0.06496   0.06363   0.00000  Uiso   1.00
H274   H     0.53963   0.04443   0.06284   0.00000  Uiso   1.00
H275   H     0.49687  -0.02932  -0.01969   0.00000  Uiso   1.00
H276   H     0.24741  -0.06280   1.00531   0.00000  Uiso   1.00
H277   H     0.27728  -0.04528   0.91082   0.00000  Uiso   1.00
H278   H     0.25079   0.02733   0.96676   0.00000  Uiso   1.00
H279   H     0.37263   0.18582   0.30613   0.00000  Uiso   1.00
H280   H     0.44809   0.24291   0.22767   0.00000  Uiso   1.00
H281   H     0.40800   0.30075   0.29171   0.00000  Uiso   1.00
H282   H     0.66662   0.25453   0.31319   0.00000  Uiso   1.00
H283   H     0.54687   0.16738   0.28473   0.00000  Uiso   1.00
H284   H     0.57535   0.18665   0.38216   0.00000  Uiso   1.00
H285   H     0.69989   0.46226   0.35391   0.00000  Uiso   1.00
H286   H     0.65578   0.44473   0.26209   0.00000  Uiso   1.00
H287   H     0.73693   0.40990   0.28276   0.00000  Uiso   1.00
H288   H     0.40783   0.90718   0.61801   0.00000  Uiso   1.00
H289   H     0.51053   0.93649   0.67645   0.00000  Uiso   1.00
H290   H     0.53324   1.02247   0.62026   0.00000  Uiso   1.00
H291   H     0.59144   0.28621   0.63094   0.00000  Uiso   1.00
H292   H     0.54937   0.23101   0.71684   0.00000  Uiso   1.00
H293   H     0.49750   0.28326   0.68115   0.00000  Uiso   1.00
H294   H     0.53962   0.14083   0.53934   0.00000  Uiso   1.00
H295   H     0.46253   0.16634   0.49976   0.00000  Uiso   1.00
H296   H     0.40206   0.04372   0.51863   0.00000  Uiso   1.00
H297   H     0.25328   0.27600   0.08309   0.00000  Uiso   1.00
H298   H     0.30231   0.22759   0.13979   0.00000  Uiso   1.00
H299   H     0.26392   0.18844   0.04959   0.00000  Uiso   1.00
H300   H     0.38213   0.07025   0.10987   0.00000  Uiso   1.00
H301   H     0.39802   0.15951   0.05933   0.00000  Uiso   1.00
H302   H     0.50808   0.16207   0.09224   0.00000  Uiso   1.00
H303   H     0.48468   0.28145  -0.02224   0.00000  Uiso   1.00
H304   H     0.55432   0.29705   0.06374   0.00000  Uiso   1.00
H305   H     0.59044   0.38345   0.00641   0.00000  Uiso   1.00
H306   H     0.45108   0.40229   0.19183   0.00000  Uiso   1.00
H307   H     0.55691   0.48512   0.13980   0.00000  Uiso   1.00
H308   H     0.54714   0.38410   0.16351   0.00000  Uiso   1.00
H309   H     0.27656   0.34886   0.21533   0.00000  Uiso   1.00
H310   H     0.25493   0.39444   0.12352   0.00000  Uiso   1.00
H311   H     0.18908   0.39366   0.20414   0.00000  Uiso   1.00
H312   H     0.21685   0.50675   0.26589   0.00000  Uiso   1.00
H313   H     0.33499   0.62155   0.26420   0.00000  Uiso   1.00
H314   H     0.30811   0.54238   0.33443   0.00000  Uiso   1.00
H315   H     0.65422   0.57844   0.42950   0.00000  Uiso   1.00
H316   H     0.64756   0.65289   0.36229   0.00000  Uiso   1.00
H317   H     0.65731   0.56018   0.32713   0.00000  Uiso   1.00
H318   H     0.51804   0.40604   0.73423   0.00000  Uiso   1.00
H319   H     0.40083   0.33480   0.67959   0.00000  Uiso   1.00
H320   H     0.40600   0.39150   0.76533   0.00000  Uiso   1.00
H321   H     0.62190   0.93993  -0.01520   0.00000  Uiso   1.00
H322   H     0.69328   0.95181   0.06808   0.00000  Uiso   1.00
H323   H     0.55477   0.90214   0.06995   0.00000  Uiso   1.00
H324   H     0.69781   0.73713   0.99891   0.00000  Uiso   1.00
H325   H     0.76762   0.85418   1.03754   0.00000  Uiso   1.00
H326   H     0.73877   0.83430   0.93751   0.00000  Uiso   1.00
H327   H     0.62860   0.71408   0.47084   0.00000  Uiso   1.00
H328   H     0.57130   0.64188   0.55300   0.00000  Uiso   1.00
H329   H     0.57261   0.74249   0.54121   0.00000  Uiso   1.00
H330   H     0.46763   0.82876   0.25415   0.00000  Uiso   1.00
H331   H     0.45441   0.86014   0.34805   0.00000  Uiso   1.00
H332   H     0.35707   0.74517   0.30543   0.00000  Uiso   1.00
H333   H     0.58990   0.88382   0.43950   0.00000  Uiso   1.00
H334   H     0.67166   0.92305   0.35937   0.00000  Uiso   1.00
H335   H     0.67060   0.84204   0.42736   0.00000  Uiso   1.00
H336   H     0.44029   0.67972   0.66105   0.00000  Uiso   1.00
H337   H     0.58948   0.73276   0.65792   0.00000  Uiso   1.00
H338   H     0.55017   0.78599   0.71414   0.00000  Uiso   1.00
H339   H     0.68454   0.72302   0.78258   0.00000  Uiso   1.00
H340   H     0.62495   0.67807   0.86901   0.00000  Uiso   1.00
H341   H     0.64232   0.78123   0.83155   0.00000  Uiso   1.00
H342   H     0.36454   0.76868   0.69360   0.00000  Uiso   1.00
H343   H     0.37534   0.72257   0.78031   0.00000  Uiso   1.00
H344   H     0.46788   0.83491   0.75687   0.00000  Uiso   1.00
H345   H     0.50062   0.69435   0.92284   0.00000  Uiso   1.00
H346   H     0.52113   0.79906   0.88449   0.00000  Uiso   1.00
H347   H     0.42076   0.72244   0.95346   0.00000  Uiso   1.00
H348   H     0.36489   0.89844   0.90829   0.00000  Uiso   1.00
H349   H     0.45019   0.87518   0.88122   0.00000  Uiso   1.00
H350   H     0.32277   0.78018   0.92285   0.00000  Uiso   1.00
H351   H     0.68564   0.10223   0.12619   0.00000  Uiso   1.00
H352   H     0.79540   0.10352   0.09748   0.00000  Uiso   1.00
H353   H     0.80961   0.20445   0.12070   0.00000  Uiso   1.00
H354   H     0.68245   0.05373   0.34920   0.00000  Uiso   1.00
H355   H     0.61764  -0.00618   0.26629   0.00000  Uiso   1.00
H356   H     0.64648   0.10653   0.28583   0.00000  Uiso   1.00
H357   H     0.73357   0.14032   0.86705   0.00000  Uiso   1.00
H358   H     0.62622   0.03372   0.86791   0.00000  Uiso   1.00
H359   H     0.65301   0.09054   0.95087   0.00000  Uiso   1.00
H360   H     0.90618   0.17477   0.63346   0.00000  Uiso   1.00
H361   H     0.96322   0.23231   0.72062   0.00000  Uiso   1.00
H362   H     0.96045   0.29170   0.63936   0.00000  Uiso   1.00
H363   H     0.73340   0.26302   0.61945   0.00000  Uiso   1.00
H364   H     0.63521   0.16235   0.67168   0.00000  Uiso   1.00
H365   H     0.69017   0.15274   0.58629   0.00000  Uiso   1.00
H366   H     0.74617   0.06338   0.78617   0.00000  Uiso   1.00
H367   H     0.73721   0.03638   0.68863   0.00000  Uiso   1.00
H368   H     0.63673   0.04102   0.73971   0.00000  Uiso   1.00
H369   H     0.76897   0.28310  -0.04320   0.00000  Uiso   1.00
H370   H     0.64588   0.26694  -0.02739   0.00000  Uiso   1.00
H371   H     0.67980   0.20513   0.02299   0.00000  Uiso   1.00
H372   H     0.91901   0.33539   0.06376   0.00000  Uiso   1.00
H373   H     0.92685   0.39997   0.13922   0.00000  Uiso   1.00
H374   H     0.95709   0.45271   0.05138   0.00000  Uiso   1.00
H375   H     0.65629   0.24503   0.16462   0.00000  Uiso   1.00
H376   H     0.66480   0.34922   0.16518   0.00000  Uiso   1.00
H377   H     0.76545   0.33549   0.20471   0.00000  Uiso   1.00
H378   H     0.72384   0.37832   0.54410   0.00000  Uiso   1.00
H379   H     0.64420   0.28361   0.48373   0.00000  Uiso   1.00
H380   H     0.71355   0.38598   0.44314   0.00000  Uiso   1.00
H381   H     0.83386   0.25843   0.27782   0.00000  Uiso   1.00
H382   H     0.94201   0.27922   0.22907   0.00000  Uiso   1.00
H383   H     0.91132   0.22384   0.31959   0.00000  Uiso   1.00
H384   H     0.81623   0.20118   0.49702   0.00000  Uiso   1.00
H385   H     0.79461   0.20814   0.40524   0.00000  Uiso   1.00
H386   H     0.69107   0.17394   0.45900   0.00000  Uiso   1.00
H387   H     0.88686   0.46773   0.38715   0.00000  Uiso   1.00
H388   H     0.84981   0.37712   0.33750   0.00000  Uiso   1.00
H389   H     0.97863   0.44194   0.37185   0.00000  Uiso   1.00
H390   H     0.66823   0.39443   0.88705   0.00000  Uiso   1.00
H391   H     0.61508   0.40244   0.80637   0.00000  Uiso   1.00
H392   H     0.53978   0.37267   0.88353   0.00000  Uiso   1.00
H393   H     0.98516   0.61647   0.22317   0.00000  Uiso   1.00
H394   H     0.86298   0.51280   0.20042   0.00000  Uiso   1.00
H395   H     0.87167   0.58878   0.26168   0.00000  Uiso   1.00
H396   H     0.72035   0.59130   0.09882   0.00000  Uiso   1.00
H397   H     0.77132   0.69572   0.15204   0.00000  Uiso   1.00
H398   H     0.72818   0.58770   0.19449   0.00000  Uiso   1.00
H399   H     1.07071   0.80982   0.13052   0.00000  Uiso   1.00
H400   H     0.97246   0.79725   0.20057   0.00000  Uiso   1.00
H401   H     0.96345   0.80897   0.10161   0.00000  Uiso   1.00
H402   H     0.79883   0.83589   0.32570   0.00000  Uiso   1.00
H403   H     0.84186   0.83663   0.23497   0.00000  Uiso   1.00
H404   H     0.78123   0.73354   0.28133   0.00000  Uiso   1.00
H405   H     0.73984   0.89690   0.16209   0.00000  Uiso   1.00
H406   H     0.69396   0.91088   0.24779   0.00000  Uiso   1.00
H407   H     0.60145   0.85196   0.17582   0.00000  Uiso   1.00
H408   H     0.85228   0.57777   0.41070   0.00000  Uiso   1.00
H409   H     0.88449   0.55700   0.49621   0.00000  Uiso   1.00
H410   H     0.98255   0.65183   0.43943   0.00000  Uiso   1.00
H411   H     0.78187   0.74024   0.45337   0.00000  Uiso   1.00
H412   H     0.82922   0.70106   0.38709   0.00000  Uiso   1.00
H413   H     0.91745   0.80539   0.43077   0.00000  Uiso   1.00
H414   H     0.72295   0.72933   0.60235   0.00000  Uiso   1.00
H415   H     0.82555   0.83029   0.56105   0.00000  Uiso   1.00
H416   H     0.75995   0.84128   0.62139   0.00000  Uiso   1.00
H417   H     0.89729   0.86634   0.80782   0.00000  Uiso   1.00
H418   H     0.79439   0.87158   0.76319   0.00000  Uiso   1.00
H419   H     0.92268   0.95559   0.74708   0.00000  Uiso   1.00
loop_
_geom_bond_atom_site_label_1
_geom_bond_atom_site_label_2
_geom_bond_distance
_geom_bond_site_symmetry_2
_ccdc_geom_bond_type
Si1    C52     1.809   .     S
Si1    O54     1.614   .     S
Si1    C53     1.838   1_455 S
Si1    O143    1.643   1_455 S
Si2    O55     1.612   .     S
Si2    O94     1.637   .     S
Si2    O80     1.614   1_545 S
Si2    O83     1.648   1_545 S
Si3    O54     1.589   .     S
Si3    O55     1.613   .     S
Si3    C56     1.860   .     S
Si3    C66     1.812   .     S
Si4    C57     1.927   .     S
Si4    O63     1.575   .     S
Si4    C58     1.840   1_545 S
Si4    C90     1.799   1_545 S
Si5    C59     1.887   .     S
Si5    O70     1.568   .     S
Si5    C60     1.840   1_455 S
Si5    C61     1.881   1_455 S
Si6    C62     1.772   .     S
Si6    O63     1.619   .     S
Si6    O71     1.631   .     S
Si6    O95     1.594   .     S
Si7    C64     1.844   .     S
Si7    O76     1.615   .     S
Si7    O72     1.642   1_554 S
Si7    O120    1.602   1_554 S
Si8    C65     1.876   .     S
Si8    C67     1.878   .     S
Si8    C68     1.818   .     S
Si8    O113    1.565   .     S
Si9    C69     1.869   .     S
Si9    O73     1.638   .     S
Si9    O161    1.611   1_455 S
Si9    O170    1.640   1_455 S
Si10   O70     1.680   .     S
Si10   O71     1.651   .     S
Si10   O74     1.578   .     S
Si10   O118    1.649   .     S
Si11   O72     1.677   .     S
Si11   O85     1.597   .     S
Si11   O155    1.599   1_455 S
Si11   O166    1.654   1_455 S
Si12   O73     1.638   .     S
Si12   O74     1.623   .     S
Si12   O86     1.597   .     S
Si12   O114    1.650   .     S
Si13   C75     1.902   .     S
Si13   O76     1.601   .     S
Si13   C77     1.811   .     S
Si13   C78     1.789   .     S
Si14   C79     1.872   .     S
Si14   O80     1.603   .     S
Si14   O184    1.617   1_455 S
Si14   O188    1.557   1_455 S
Si15   C81     1.816   .     S
Si15   C82     1.881   .     S
Si15   O83     1.662   .     S
Si15   C84     1.824   .     S
Si16   O85     1.579   .     S
Si16   O86     1.614   .     S
Si16   C87     1.870   .     S
Si16   O138    1.607   .     S
Si17   C88     1.880   .     S
Si17   C89     1.857   .     S
Si17   C91     1.918   1_455 S
Si17   O187    1.561   1_455 S
Si18   C92     1.841   .     S
Si18   C105    1.902   .     S
Si18   C93     1.869   1_554 S
Si18   O148    1.646   1_554 S
Si19   O94     1.668   .     S
Si19   O95     1.610   .     S
Si19   O100    1.563   .     S
Si19   O111    1.628   .     S
Si20   C96     1.861   .     S
Si20   C97     1.817   .     S
Si20   C98     1.880   .     S
Si20   O112    1.641   .     S
Si21   O101    1.621   .     S
Si21   O146    1.594   .     S
Si21   C99     1.847   1_545 S
Si21   O141    1.645   1_545 S
Si22   O100    1.628   .     S
Si22   O101    1.618   .     S
Si22   C102    1.812   .     S
Si22   C103    1.845   .     S
Si23   C104    1.893   .     S
Si23   C106    1.839   .     S
Si23   C107    1.839   .     S
Si23   O110    1.635   .     S
Si24   C108    1.886   .     S
Si24   C109    1.872   .     S
Si24   O115    1.663   .     S
Si24   O123    1.609   .     S
Si25   O110    1.556   .     S
Si25   O124    1.635   .     S
Si25   O119    1.648   1_554 S
Si25   O169    1.648   1_554 S
Si26   O111    1.624   .     S
Si26   O112    1.611   .     S
Si26   O116    1.601   .     S
Si26   O162    1.663   .     S
Si27   O113    1.600   .     S
Si27   O114    1.643   .     S
Si27   O121    1.561   .     S
Si27   O128    1.617   .     S
Si28   O115    1.653   .     S
Si28   O116    1.640   .     S
Si28   C117    1.828   .     S
Si28   O129    1.627   .     S
Si29   O118    1.613   .     S
Si29   O119    1.630   .     S
Si29   O120    1.684   .     S
Si29   O134    1.653   .     S
Si30   O121    1.684   .     S
Si30   C122    1.792   .     S
Si30   O135    1.558   .     S
Si30   O163    1.627   .     S
Si31   O123    1.602   .     S
Si31   O124    1.612   .     S
Si31   O125    1.579   .     S
Si31   O177    1.580   .     S
Si32   O125    1.587   .     S
Si32   C126    1.855   .     S
Si32   C127    1.896   1_554 S
Si32   C140    1.832   1_554 S
Si33   O128    1.636   .     S
Si33   O129    1.550   .     S
Si33   C130    1.804   .     S
Si33   O132    1.570   .     S
Si34   C131    1.884   .     S
Si34   O132    1.570   .     S
Si34   C133    1.802   .     S
Si34   O180    1.555   .     S
Si35   O134    1.541   .     S
Si35   O135    1.608   .     S
Si35   C136    1.804   .     S
Si35   C137    1.801   .     S
Si36   O138    1.631   .     S
Si36   C139    1.876   .     S
Si36   O141    1.612   .     S
Si36   C142    1.733   .     S
Si37   O143    1.597   .     S
Si37   C144    1.885   .     S
Si37   C145    1.891   .     S
Si37   C158    1.788   .     S
Si38   O146    1.646   .     S
Si38   C147    1.780   .     S
Si38   O148    1.623   .     S
Si38   O164    1.656   .     S
Si39   C149    1.849   .     S
Si39   C150    1.833   .     S
Si39   C151    1.887   .     S
Si39   O165    1.634   .     S
Si40   C152    1.880   .     S
Si40   C153    1.858   .     S
Si40   C154    1.836   .     S
Si40   O156    1.575   .     S
Si41   O156    1.545   .     S
Si41   O174    1.574   .     S
Si41   O155    1.663   1_554 S
Si41   O168    1.631   1_554 S
Si42   C157    1.870   .     S
Si42   C159    1.849   .     S
Si42   C160    1.904   .     S
Si42   O161    1.625   .     S
Si43   O162    1.635   .     S
Si43   O163    1.611   .     S
Si43   O171    1.637   .     S
Si43   O181    1.640   .     S
Si44   O164    1.605   .     S
Si44   O165    1.578   .     S
Si44   O166    1.647   .     S
Si44   O172    1.628   .     S
Si45   C167    1.838   .     S
Si45   O168    1.607   .     S
Si45   O169    1.636   .     S
Si45   O185    1.640   .     S
Si46   O170    1.610   .     S
Si46   O171    1.641   .     S
Si46   O172    1.613   .     S
Si46   O186    1.631   .     S
Si47   C173    1.880   .     S
Si47   O174    1.568   .     S
Si47   C175    1.871   .     S
Si47   C176    1.960   .     S
Si48   O177    1.579   .     S
Si48   C178    1.829   .     S
Si48   C179    1.856   .     S
Si48   O180    1.646   .     S
Si49   O181    1.593   .     S
Si49   C182    1.823   .     S
Si49   C183    1.837   .     S
Si49   O184    1.625   .     S
Si50   O185    1.560   .     S
Si50   O186    1.652   .     S
Si50   O187    1.580   .     S
Si50   O190    1.629   .     S
Si51   O188    1.583   .     S
Si51   C189    1.849   .     S
Si51   O190    1.642   .     S
Si51   C191    1.897   .     S
C52    H192    1.130   .     S
C52    H193    1.081   .     S
C52    H194    1.086   .     S
C53    H195    1.102   .     S
C53    H196    1.148   .     S
C53    H197    1.162   .     S
C53    Si1     1.838   1_655 S
C56    H198    1.098   .     S
C56    H199    1.131   .     S
C56    H200    1.100   .     S
C57    H201    1.100   .     S
C57    H202    1.087   .     S
C57    H203    1.085   .     S
C58    H204    1.078   .     S
C58    H205    1.106   .     S
C58    H206    1.081   .     S
C58    Si4     1.840   1_565 S
C59    H207    1.109   .     S
C59    H208    1.097   .     S
C59    H209    1.037   .     S
C60    H210    1.054   .     S
C60    H211    1.076   .     S
C60    H212    1.120   .     S
C60    Si5     1.840   1_655 S
C61    H213    1.092   .     S
C61    H214    1.087   .     S
C61    H215    1.044   .     S
C61    Si5     1.881   1_655 S
C62    H216    1.067   .     S
C62    H217    1.077   .     S
C62    H218    1.133   .     S
C64    H219    1.069   .     S
C64    H220    1.090   .     S
C64    H221    1.102   .     S
C65    H222    1.082   .     S
C65    H223    1.138   .     S
C65    H224    1.167   .     S
C66    H225    1.124   .     S
C66    H226    1.082   .     S
C66    H227    1.113   .     S
C67    H228    1.161   .     S
C67    H229    1.084   .     S
C67    H230    1.131   .     S
C68    H231    1.106   .     S
C68    H232    1.080   .     S
C68    H233    1.122   .     S
C69    H234    1.080   .     S
C69    H235    1.166   .     S
C69    H236    1.076   .     S
O72    Si7     1.642   1_556 S
C75    H237    1.099   .     S
C75    H238    1.091   .     S
C75    H239    1.126   .     S
C77    H240    1.094   .     S
C77    H241    1.104   .     S
C77    H242    1.122   .     S
C78    H243    1.113   .     S
C78    H244    1.091   .     S
C78    H245    1.125   .     S
C79    H246    1.077   .     S
C79    H247    1.101   .     S
C79    H248    1.061   .     S
O80    Si2     1.614   1_565 S
C81    H249    1.119   .     S
C81    H250    1.063   .     S
C81    H251    1.091   .     S
C82    H252    1.041   .     S
C82    H253    1.056   .     S
C82    H254    1.147   .     S
O83    Si2     1.648   1_565 S
C84    H255    1.079   .     S
C84    H256    1.074   .     S
C84    H257    1.133   .     S
C87    H258    1.063   .     S
C87    H259    1.086   .     S
C87    H260    1.115   .     S
C88    H261    1.116   .     S
C88    H262    1.068   .     S
C88    H263    1.050   .     S
C89    H264    1.117   .     S
C89    H265    1.109   .     S
C89    H266    1.104   .     S
C90    H267    1.127   .     S
C90    H268    1.117   .     S
C90    H269    1.146   .     S
C90    Si4     1.799   1_565 S
C91    H270    1.116   .     S
C91    H271    1.148   .     S
C91    H272    1.112   .     S
C91    Si17    1.918   1_655 S
C92    H273    1.162   .     S
C92    H274    1.145   .     S
C92    H275    1.092   .     S
C93    H276    1.056   .     S
C93    H277    1.092   .     S
C93    H278    1.150   .     S
C93    Si18    1.869   1_556 S
C96    H279    1.141   .     S
C96    H280    1.096   .     S
C96    H281    1.130   .     S
C97    H282    1.090   .     S
C97    H283    1.114   .     S
C97    H284    1.047   .     S
C98    H285    1.115   .     S
C98    H286    1.089   .     S
C98    H287    1.139   .     S
C99    H288    1.133   .     S
C99    H289    1.113   .     S
C99    H290    1.075   .     S
C99    Si21    1.847   1_565 S
C102   H291    1.054   .     S
C102   H292    1.091   .     S
C102   H293    1.073   .     S
C103   H294    1.136   .     S
C103   H295    1.120   .     S
C103   H296    1.088   .     S
C104   H297    1.077   .     S
C104   H298    1.056   .     S
C104   H299    1.149   .     S
C105   H300    1.075   .     S
C105   H301    1.089   .     S
C105   H302    1.070   .     S
C106   H303    1.086   .     S
C106   H304    1.086   .     S
C106   H305    1.089   .     S
C107   H306    1.073   .     S
C107   H307    1.082   .     S
C107   H308    1.085   .     S
C108   H309    1.129   .     S
C108   H310    1.164   .     S
C108   H311    1.136   .     S
C109   H312    1.107   .     S
C109   H313    1.063   .     S
C109   H314    1.069   .     S
C117   H315    1.176   .     S
C117   H316    1.102   .     S
C117   H317    1.169   .     S
O119   Si25    1.648   1_556 S
O120   Si7     1.602   1_556 S
C122   H318    1.113   .     S
C122   H319    1.103   .     S
C122   H320    1.086   .     S
C126   H321    1.122   .     S
C126   H322    1.110   .     S
C126   H323    1.112   .     S
C127   H324    1.098   .     S
C127   H325    1.157   .     S
C127   H326    1.150   .     S
C127   Si32    1.896   1_556 S
C130   H327    1.109   .     S
C130   H328    1.037   .     S
C130   H329    1.112   .     S
C131   H330    1.106   .     S
C131   H331    1.138   .     S
C131   H332    1.160   .     S
C133   H333    1.117   .     S
C133   H334    1.171   .     S
C133   H335    1.126   .     S
C136   H336    1.165   .     S
C136   H337    1.127   .     S
C136   H338    1.168   .     S
C137   H339    1.086   .     S
C137   H340    1.121   .     S
C137   H341    1.092   .     S
C139   H342    1.085   .     S
C139   H343    1.117   .     S
C139   H344    1.077   .     S
C140   H345    1.052   .     S
C140   H346    1.156   .     S
C140   H347    1.107   .     S
C140   Si32    1.832   1_556 S
O141   Si21    1.645   1_565 S
C142   H348    1.118   .     S
C142   H349    1.127   .     S
C142   H350    1.108   .     S
O143   Si1     1.643   1_655 S
C144   H351    1.088   .     S
C144   H352    1.110   .     S
C144   H353    1.074   .     S
C145   H354    1.111   .     S
C145   H355    1.077   .     S
C145   H356    1.143   .     S
C147   H357    1.136   .     S
C147   H358    1.087   .     S
C147   H359    1.115   .     S
O148   Si18    1.646   1_556 S
C149   H360    1.123   .     S
C149   H361    1.167   .     S
C149   H362    1.062   .     S
C150   H363    1.078   .     S
C150   H364    1.086   .     S
C150   H365    1.112   .     S
C151   H366    1.087   .     S
C151   H367    1.165   .     S
C151   H368    1.140   .     S
C152   H369    1.126   .     S
C152   H370    1.102   .     S
C152   H371    1.067   .     S
C153   H372    1.101   .     S
C153   H373    1.090   .     S
C153   H374    1.080   .     S
C154   H375    1.077   .     S
C154   H376    1.086   .     S
C154   H377    1.175   .     S
O155   Si11    1.599   1_655 S
O155   Si41    1.663   1_556 S
C157   H378    1.149   .     S
C157   H379    1.070   .     S
C157   H380    1.098   .     S
C158   H381    1.116   .     S
C158   H382    1.108   .     S
C158   H383    1.068   .     S
C159   H384    1.079   .     S
C159   H385    1.117   .     S
C159   H386    1.109   .     S
C160   H387    1.100   .     S
C160   H388    1.082   .     S
C160   H389    1.138   .     S
O161   Si9     1.611   1_655 S
O166   Si11    1.654   1_655 S
C167   H390    1.071   .     S
C167   H391    1.065   .     S
C167   H392    1.105   .     S
O168   Si41    1.631   1_556 S
O169   Si25    1.648   1_556 S
O170   Si9     1.640   1_655 S
C173   H393    1.135   .     S
C173   H394    1.065   .     S
C173   H395    1.081   .     S
C175   H396    1.058   .     S
C175   H397    1.147   .     S
C175   H398    1.085   .     S
C176   H399    1.119   .     S
C176   H400    1.135   .     S
C176   H401    1.094   .     S
C178   H402    1.124   .     S
C178   H403    1.098   .     S
C178   H404    1.135   .     S
C179   H405    1.102   .     S
C179   H406    1.094   .     S
C179   H407    1.127   .     S
C182   H408    1.118   .     S
C182   H409    1.023   .     S
C182   H410    1.124   .     S
C183   H411    1.086   .     S
C183   H412    1.121   .     S
C183   H413    1.103   .     S
O184   Si14    1.617   1_655 S
O187   Si17    1.561   1_655 S
O188   Si14    1.557   1_655 S
C189   H414    1.057   .     S
C189   H415    1.035   .     S
C189   H416    1.073   .     S
C191   H417    1.139   .     S
C191   H418    1.129   .     S
C191   H419    1.082   .     S
