data_333-15-11-10-15-30-8
_audit_creation_date              2025-03-07
_audit_creation_method            'Materials Studio'
_symmetry_space_group_name_H-M    'P1'
_symmetry_Int_Tables_number       1
_symmetry_cell_setting            triclinic
loop_
_symmetry_equiv_pos_as_xyz
  x,y,z
_cell_length_a                    17.1440
_cell_length_b                    15.6987
_cell_length_c                    18.7791
_cell_angle_alpha                 93.3651
_cell_angle_beta                  90.5804
_cell_angle_gamma                 121.1478
loop_
_atom_site_label
_atom_site_type_symbol
_atom_site_fract_x
_atom_site_fract_y
_atom_site_fract_z
_atom_site_U_iso_or_equiv
_atom_site_adp_type
_atom_site_occupancy
Si1    Si    0.15911   0.01972   0.11323   0.00000  Uiso   1.00
Si2    Si    0.06115   0.20994   0.18845   0.00000  Uiso   1.00
Si3    Si    0.14819   0.15646   0.01214   0.00000  Uiso   1.00
Si4    Si    0.25450  -0.01449   0.40494   0.00000  Uiso   1.00
Si5    Si    0.02850   0.16394   0.57883   0.00000  Uiso   1.00
Si6    Si    0.22136   0.23399   0.28010   0.00000  Uiso   1.00
Si7    Si   -0.00390   0.16172   0.93218   0.00000  Uiso   1.00
Si8    Si    0.22463   0.21844   0.63404   0.00000  Uiso   1.00
Si9    Si    0.17941   0.34742   0.08318   0.00000  Uiso   1.00
Si10   Si   -0.06401   0.45130   0.26868   0.00000  Uiso   1.00
Si11   Si    0.12119   0.47457   0.01676   0.00000  Uiso   1.00
Si12   Si    0.09227   0.37604   0.53508   0.00000  Uiso   1.00
Si13   Si   -0.31463   0.28458   0.63217   0.00000  Uiso   1.00
Si14   Si    0.02263   0.87343   0.21377   0.00000  Uiso   1.00
Si15   Si    0.00963   0.68763  -0.16735   0.00000  Uiso   1.00
Si16   Si    0.19317   0.87349   0.26066   0.00000  Uiso   1.00
Si17   Si   -0.06061   0.81545   0.89127   0.00000  Uiso   1.00
Si18   Si    0.49585   0.01723   0.06956   0.00000  Uiso   1.00
Si19   Si    0.34147   0.18376   0.19635   0.00000  Uiso   1.00
Si20   Si    0.45971   0.17100  -0.00203   0.00000  Uiso   1.00
Si21   Si    0.50491   0.18407   0.25964   0.00000  Uiso   1.00
Si22   Si    0.29207   0.14560   0.91659   0.00000  Uiso   1.00
Si23   Si    0.48324   0.34511   0.10735   0.00000  Uiso   1.00
Si24   Si    0.48444   0.48886   0.00462   0.00000  Uiso   1.00
Si25   Si    0.60369   0.52667   0.72953   0.00000  Uiso   1.00
Si26   Si    0.33419   0.87895   0.16170   0.00000  Uiso   1.00
Si27   Si    0.52622   0.87183  -0.04198   0.00000  Uiso   1.00
Si28   Si    0.60903   0.66750   0.48388   0.00000  Uiso   1.00
Si29   Si    0.40497   0.77098   0.24808   0.00000  Uiso   1.00
Si30   Si    0.59591   0.71165   0.78271   0.00000  Uiso   1.00
Si31   Si    0.39931   0.87349   0.84140   0.00000  Uiso   1.00
Si32   Si    0.61077   0.84936   0.66283   0.00000  Uiso   1.00
Si33   Si    0.89462   0.03830   0.11799   0.00000  Uiso   1.00
Si34   Si    0.65591   0.18847   0.16657   0.00000  Uiso   1.00
Si35   Si    0.86501   0.18259   0.03583   0.00000  Uiso   1.00
Si36   Si    0.89436   0.01486   0.46175   0.00000  Uiso   1.00
Si37   Si    0.85684   0.00650   0.81370   0.00000  Uiso   1.00
Si38   Si    0.74889   0.18776   0.91802   0.00000  Uiso   1.00
Si39   Si    0.90873   0.15951   0.69781   0.00000  Uiso   1.00
Si40   Si    0.84521   0.34547   0.12250   0.00000  Uiso   1.00
Si41   Si    0.65395   0.53633   0.20301   0.00000  Uiso   1.00
Si42   Si    0.82881   0.51690   0.05613   0.00000  Uiso   1.00
Si43   Si    0.63393   0.13079   0.50685   0.00000  Uiso   1.00
Si44   Si    0.82854   0.69796   0.12484   0.00000  Uiso   1.00
Si45   Si    0.78185   0.91039   0.23862   0.00000  Uiso   1.00
Si46   Si    0.84375   0.85172   0.01489   0.00000  Uiso   1.00
Si47   Si    0.92663   0.74802   0.43513   0.00000  Uiso   1.00
Si48   Si    0.74941   0.86134   0.56350   0.00000  Uiso   1.00
Si49   Si    0.90906   0.88220   0.33616   0.00000  Uiso   1.00
Si50   Si    0.70001   0.86893   0.90846   0.00000  Uiso   1.00
Si51   Si    0.88475   0.88855   0.69115   0.00000  Uiso   1.00
C52    C     0.99500   0.22444   0.26084   0.00000  Uiso   1.00
O53    O     0.13184   0.08547   0.07602   0.00000  Uiso   1.00
C54    C     0.34631   0.12187   0.42165   0.00000  Uiso   1.00
C55    C     0.29140   0.90554   0.45049   0.00000  Uiso   1.00
O56    O     0.14299   0.19884   0.22071   0.00000  Uiso   1.00
C57    C     0.15879  -0.01438   0.45215   0.00000  Uiso   1.00
C58    C     0.15632   0.17277   0.36097   0.00000  Uiso   1.00
O59    O     0.05251   0.12948   0.97719   0.00000  Uiso   1.00
C60    C     0.08400   0.26138   0.87796   0.00000  Uiso   1.00
O61    O     0.12752   0.17583   0.59222   0.00000  Uiso   1.00
C62    C     0.24459   0.11110   0.64040   0.00000  Uiso   1.00
C63    C     0.22681   0.26452   0.72695   0.00000  Uiso   1.00
C64    C     0.32390   0.31708   0.58553   0.00000  Uiso   1.00
O65    O     0.10588   0.29966   0.14400   0.00000  Uiso   1.00
O66    O     0.19853   0.27125   0.04372   0.00000  Uiso   1.00
C67    C     0.29115   0.44720   0.12511   0.00000  Uiso   1.00
C68    C     0.05095   0.48001   0.30227   0.00000  Uiso   1.00
C69    C    -0.04886   0.56661   0.23780   0.00000  Uiso   1.00
C70    C     0.85424   0.41211   0.34107   0.00000  Uiso   1.00
O71    O     0.13818   0.38570   0.02768   0.00000  Uiso   1.00
C72    C     0.10613   0.51678   0.10808   0.00000  Uiso   1.00
C73    C     0.02358   0.44125   0.95670   0.00000  Uiso   1.00
C74    C     0.22128   0.57554   0.98211   0.00000  Uiso   1.00
O75    O     0.03550   0.26166   0.54937   0.00000  Uiso   1.00
C76    C     0.27719   0.37218   0.30300   0.00000  Uiso   1.00
C77    C     0.16033   0.38765   0.45861   0.00000  Uiso   1.00
C78    C     0.00333   0.40295   0.51190   0.00000  Uiso   1.00
C79    C     0.16215   0.45748   0.61624   0.00000  Uiso   1.00
C80    C    -0.20392   0.39873   0.61315   0.00000  Uiso   1.00
C81    C    -0.40935   0.31108   0.61124   0.00000  Uiso   1.00
C82    C     0.66591   0.25690   0.72613   0.00000  Uiso   1.00
O83    O     0.07882   0.96659   0.16959   0.00000  Uiso   1.00
C84    C     0.08491   0.64985  -0.12236   0.00000  Uiso   1.00
C85    C     0.07717   0.75245  -0.24876   0.00000  Uiso   1.00
C86    C     0.15111   0.91974   0.04685   0.00000  Uiso   1.00
O87    O     0.09174   0.83957   0.23787   0.00000  Uiso   1.00
C88    C     0.18105   0.75723   0.29085   0.00000  Uiso   1.00
O89    O     0.24106   0.96509   0.32243   0.00000  Uiso   1.00
O90    O    -0.01645   0.74970   0.88944   0.00000  Uiso   1.00
C91    C     0.02411   0.92833   0.84877   0.00000  Uiso   1.00
C92    C     0.82142   0.73169   0.84759   0.00000  Uiso   1.00
O93    O     0.26129   0.08718   0.14671   0.00000  Uiso   1.00
O94    O     0.29668   0.20787   0.26331   0.00000  Uiso   1.00
O95    O     0.46455   0.07335   0.01664   0.00000  Uiso   1.00
O96    O     0.41027   0.14959   0.22219   0.00000  Uiso   1.00
C97    C     0.48492   0.06985   0.30135   0.00000  Uiso   1.00
C98    C     0.54027   0.29352   0.32315   0.00000  Uiso   1.00
C99    C     0.24986   0.03997   0.84641   0.00000  Uiso   1.00
O100   O     0.35634   0.14093   0.97655   0.00000  Uiso   1.00
C101   C     0.35751   0.26317   0.87330   0.00000  Uiso   1.00
O102   O     0.20540   0.14705   0.94808   0.00000  Uiso   1.00
O103   O     0.39718   0.28357   0.15506   0.00000  Uiso   1.00
O104   O     0.49829   0.25884   0.06293   0.00000  Uiso   1.00
O105   O     0.45483   0.38921   0.04283   0.00000  Uiso   1.00
C106   C     0.53661   0.59556   0.06889   0.00000  Uiso   1.00
C107   C     0.37900   0.47235   0.95044   0.00000  Uiso   1.00
C108   C     0.57219   0.51341   0.93321   0.00000  Uiso   1.00
C109   C     0.48146   0.43493   0.72197   0.00000  Uiso   1.00
C110   C     0.66104   0.47590   0.78074   0.00000  Uiso   1.00
C111   C     0.63687   0.54614   0.63284   0.00000  Uiso   1.00
C112   C     0.27161   0.76813   0.09474   0.00000  Uiso   1.00
O113   O     0.42165   0.97394   0.12702   0.00000  Uiso   1.00
O114   O     0.25995   0.90226   0.19341   0.00000  Uiso   1.00
C115   C     0.45301   0.73345  -0.03210   0.00000  Uiso   1.00
O116   O     0.50559   0.93074   0.02253   0.00000  Uiso   1.00
C117   C     0.61765   0.56085   0.44459   0.00000  Uiso   1.00
C118   C     0.59079   0.73445   0.41317   0.00000  Uiso   1.00
O119   O     0.36545   0.83936   0.22566   0.00000  Uiso   1.00
C120   C     0.50878   0.61251   0.54044   0.00000  Uiso   1.00
C121   C     0.32092   0.64506   0.27957   0.00000  Uiso   1.00
C122   C     0.49067   0.83911   0.31871   0.00000  Uiso   1.00
C123   C     0.46924   0.64075   0.78923   0.00000  Uiso   1.00
O124   O     0.62465   0.63064   0.76901   0.00000  Uiso   1.00
C125   C     0.32868   0.74382   0.79776   0.00000  Uiso   1.00
O126   O     0.48554   0.88555   0.88435   0.00000  Uiso   1.00
C127   C     0.42386   0.96434   0.77392   0.00000  Uiso   1.00
C128   C     0.32952   0.89024   0.91183   0.00000  Uiso   1.00
C129   C    -0.09590   0.56567   0.79666   0.00000  Uiso   1.00
C130   C     0.48799   0.80139   0.62905   0.00000  Uiso   1.00
O131   O     0.62666   0.77966   0.71539   0.00000  Uiso   1.00
C132   C     0.63430   0.96113   0.71973   0.00000  Uiso   1.00
O133   O     0.99709   0.12068   0.13519   0.00000  Uiso   1.00
O134   O     0.59334   0.09407   0.10900   0.00000  Uiso   1.00
C135   C     0.70873   0.14681   0.23113   0.00000  Uiso   1.00
O136   O     0.58954   0.21790   0.20806   0.00000  Uiso   1.00
O137   O     0.94776   0.20124   0.98905   0.00000  Uiso   1.00
O138   O     0.84603   0.09206   0.08388   0.00000  Uiso   1.00
C139   C     0.87529   0.11370   0.43353   0.00000  Uiso   1.00
O140   O     0.97401   0.07201   0.51998   0.00000  Uiso   1.00
O141   O     0.93273   0.06414   0.87816   0.00000  Uiso   1.00
C142   C     0.63298   0.08744   0.88481   0.00000  Uiso   1.00
O143   O     0.78225   0.15104   0.98216   0.00000  Uiso   1.00
C144   C     0.83218   0.23174   0.84930   0.00000  Uiso   1.00
C145   C     0.74368   0.29528   0.94551   0.00000  Uiso   1.00
C146   C     0.52000   0.22090   0.91567   0.00000  Uiso   1.00
O147   O     0.97457   0.13657   0.65041   0.00000  Uiso   1.00
C148   C     0.81533   0.15052   0.64063   0.00000  Uiso   1.00
O149   O     0.85926   0.08429   0.76054   0.00000  Uiso   1.00
C150   C     0.97766   0.29415   0.72257   0.00000  Uiso   1.00
O151   O     0.73193   0.27405   0.12455   0.00000  Uiso   1.00
O152   O     0.88302   0.28515   0.07957   0.00000  Uiso   1.00
O153   O     0.89540   0.37169   0.20138   0.00000  Uiso   1.00
O154   O     0.58283   0.43532   0.14916   0.00000  Uiso   1.00
C155   C     0.72221   0.50550   0.26253   0.00000  Uiso   1.00
C156   C     0.58151   0.56932   0.25802   0.00000  Uiso   1.00
C157   C     0.88245   0.56381   0.97393   0.00000  Uiso   1.00
O158   O     0.86602   0.44973   0.08917   0.00000  Uiso   1.00
C159   C     0.70631   0.44527   1.03131   0.00000  Uiso   1.00
C160   C     0.51610   0.10192   0.49948   0.00000  Uiso   1.00
C161   C     0.63345   0.01356   0.51248   0.00000  Uiso   1.00
C162   C     0.70900   0.20692   0.43314   0.00000  Uiso   1.00
O163   O     0.67477   0.19747   0.58158   0.00000  Uiso   1.00
O164   O     0.73588   0.63633   0.17055   0.00000  Uiso   1.00
O165   O     0.85993   0.62236   0.09821   0.00000  Uiso   1.00
O166   O     0.91876   0.78983   0.17298   0.00000  Uiso   1.00
C167   C     0.68271   0.80738   0.17686   0.00000  Uiso   1.00
O168   O     0.84722   0.99638   0.19113   0.00000  Uiso   1.00
C169   C     0.73019   0.96131   0.29672   0.00000  Uiso   1.00
C170   C     0.45177   0.75031   0.16748   0.00000  Uiso   1.00
O171   O     0.92010   0.85229   0.96433   0.00000  Uiso   1.00
O172   O     0.81035   0.75097   0.05996   0.00000  Uiso   1.00
O173   O     0.89175   0.95147   0.06777   0.00000  Uiso   1.00
C174   C     0.84614   0.62050   0.45764   0.00000  Uiso   1.00
C175   C     1.02608   0.74212   0.41469   0.00000  Uiso   1.00
C176   C     0.95887   0.84123   0.51484   0.00000  Uiso   1.00
O177   O     0.69470   0.74696   0.53151   0.00000  Uiso   1.00
O178   O     0.79930   0.93167   0.49905   0.00000  Uiso   1.00
O179   O     0.67586   0.88464   0.59742   0.00000  Uiso   1.00
O180   O     0.99504   0.91213   0.28526   0.00000  Uiso   1.00
O181   O     0.82616   0.86046   0.28437   0.00000  Uiso   1.00
O182   O     0.88692   0.78495   0.37425   0.00000  Uiso   1.00
O183   O     0.92425   0.96925   0.39507   0.00000  Uiso   1.00
O184   O     0.63468   0.76748   0.86051   0.00000  Uiso   1.00
O185   O     0.76128   0.84311   0.96421   0.00000  Uiso   1.00
O186   O     0.76053   0.94955   0.85268   0.00000  Uiso   1.00
O187   O     0.63236   0.89663   0.95101   0.00000  Uiso   1.00
C188   C     1.00791   0.96496   0.67231   0.00000  Uiso   1.00
O189   O     0.82321   0.88814   0.62871   0.00000  Uiso   1.00
C190   C     0.86513   0.76062   0.68396   0.00000  Uiso   1.00
O191   O     0.86512   0.92244   0.76674   0.00000  Uiso   1.00
H192   H     0.95626   0.25838   0.24118   0.00000  Uiso   1.00
H193   H     1.04940   0.27099   0.30727   0.00000  Uiso   1.00
H194   H     0.94241   0.15060   0.27717   0.00000  Uiso   1.00
H195   H     0.40578   0.12365   0.40132   0.00000  Uiso   1.00
H196   H     0.35845   0.15787   0.47942   0.00000  Uiso   1.00
H197   H     0.33162   0.16848   0.38798   0.00000  Uiso   1.00
H198   H     0.31297   0.93516   0.50557   0.00000  Uiso   1.00
H199   H     0.34712   0.90860   0.41870   0.00000  Uiso   1.00
H200   H     0.22933   0.83021   0.45072   0.00000  Uiso   1.00
H201   H     0.09965  -0.04358   0.41427   0.00000  Uiso   1.00
H202   H     0.17725   0.06147   0.47437   0.00000  Uiso   1.00
H203   H     0.14973  -0.05202   0.50141   0.00000  Uiso   1.00
H204   H     0.12552   0.09260   0.35698   0.00000  Uiso   1.00
H205   H     0.10938   0.19968   0.37620   0.00000  Uiso   1.00
H206   H     0.20691   0.19693   0.40882   0.00000  Uiso   1.00
H207   H     0.14886   0.31265   0.91171   0.00000  Uiso   1.00
H208   H     0.05099   0.29859   0.85839   0.00000  Uiso   1.00
H209   H     0.10197   0.22135   0.83502   0.00000  Uiso   1.00
H210   H     0.18436   0.04224   0.65930   0.00000  Uiso   1.00
H211   H     0.30650   0.13162   0.67442   0.00000  Uiso   1.00
H212   H     0.25831   0.09379   0.58415   0.00000  Uiso   1.00
H213   H     0.29632   0.31991   0.75068   0.00000  Uiso   1.00
H214   H     0.18916   0.20253   0.76176   0.00000  Uiso   1.00
H215   H     0.18929   0.30731   0.73137   0.00000  Uiso   1.00
H216   H     0.38621   0.32171   0.60071   0.00000  Uiso   1.00
H217   H     0.32613   0.38636   0.60366   0.00000  Uiso   1.00
H218   H     0.30926   0.30832   0.52694   0.00000  Uiso   1.00
H219   H     0.33072   0.50519   0.09062   0.00000  Uiso   1.00
H220   H     0.33665   0.42028   0.14049   0.00000  Uiso   1.00
H221   H     0.27721   0.48499   0.16900   0.00000  Uiso   1.00
H222   H     0.08389   0.54992   0.33344   0.00000  Uiso   1.00
H223   H     0.09957   0.49647   0.25947   0.00000  Uiso   1.00
H224   H     0.04406   0.42131   0.33589   0.00000  Uiso   1.00
H225   H    -0.11649   0.54821   0.21588   0.00000  Uiso   1.00
H226   H     0.00000   0.59518   0.19510   0.00000  Uiso   1.00
H227   H    -0.03668   0.61952   0.28535   0.00000  Uiso   1.00
H228   H     0.87104   0.36760   0.37683   0.00000  Uiso   1.00
H229   H     0.78444   0.36830   0.31833   0.00000  Uiso   1.00
H230   H     0.84763   0.46813   0.37330   0.00000  Uiso   1.00
H231   H     0.16501   0.52671   0.14638   0.00000  Uiso   1.00
H232   H     0.04175   0.45709   0.12831   0.00000  Uiso   1.00
H233   H     0.09763   0.58125   0.11289   0.00000  Uiso   1.00
H234   H    -0.03444   0.36760   0.96765   0.00000  Uiso   1.00
H235   H     0.04262   0.42913   0.90463   0.00000  Uiso   1.00
H236   H    -0.00556   0.48513   0.96024   0.00000  Uiso   1.00
H237   H     0.23015   0.54551   0.93161   0.00000  Uiso   1.00
H238   H     0.28159   0.60546   1.02101   0.00000  Uiso   1.00
H239   H     0.20899   0.63753   0.97401   0.00000  Uiso   1.00
H240   H     0.22186   0.38725   0.30388   0.00000  Uiso   1.00
H241   H     0.32950   0.41803   0.26838   0.00000  Uiso   1.00
H242   H     0.30837   0.38848   0.36237   0.00000  Uiso   1.00
H243   H     0.10417   0.34043   0.41860   0.00000  Uiso   1.00
H244   H     0.20693   0.36201   0.47369   0.00000  Uiso   1.00
H245   H     0.20454   0.46661   0.44025   0.00000  Uiso   1.00
H246   H     0.02517   0.47256   0.48615   0.00000  Uiso   1.00
H247   H    -0.03208   0.40261   0.55866   0.00000  Uiso   1.00
H248   H    -0.04546   0.33642   0.48180   0.00000  Uiso   1.00
H249   H     0.19333   0.42347   0.64472   0.00000  Uiso   1.00
H250   H     0.11758   0.46754   0.65193   0.00000  Uiso   1.00
H251   H     0.22108   0.53440   0.60115   0.00000  Uiso   1.00
H252   H    -0.20297   0.46893   0.63344   0.00000  Uiso   1.00
H253   H    -0.19488   0.38928   0.55347   0.00000  Uiso   1.00
H254   H    -0.14500   0.39924   0.63764   0.00000  Uiso   1.00
H255   H    -0.39750   0.34804   0.56189   0.00000  Uiso   1.00
H256   H    -0.39724   0.36234   0.65791   0.00000  Uiso   1.00
H257   H    -0.48152   0.24949   0.61251   0.00000  Uiso   1.00
H258   H     0.72159   0.31899   0.76119   0.00000  Uiso   1.00
H259   H     0.67411   0.19431   0.73531   0.00000  Uiso   1.00
H260   H     0.60065   0.24571   0.74571   0.00000  Uiso   1.00
H261   H     0.05633   0.56707  -0.13540   0.00000  Uiso   1.00
H262   H     0.08506   0.66273  -0.06334   0.00000  Uiso   1.00
H263   H     0.15241   0.70200  -0.13739   0.00000  Uiso   1.00
H264   H     0.04263   0.77448  -0.28858   0.00000  Uiso   1.00
H265   H     0.09953   0.70761  -0.27491   0.00000  Uiso   1.00
H266   H     0.13806   0.81968  -0.23593   0.00000  Uiso   1.00
H267   H     0.21877   0.93482   0.02483   0.00000  Uiso   1.00
H268   H     0.11053   0.91276  -0.00001   0.00000  Uiso   1.00
H269   H     0.11303   0.84286   0.06585   0.00000  Uiso   1.00
H270   H     0.17480   0.70287   0.24476   0.00000  Uiso   1.00
H271   H     0.11660   0.71472   0.31858   0.00000  Uiso   1.00
H272   H     0.24166   0.77778   0.32385   0.00000  Uiso   1.00
H273   H     0.05288   0.91127   0.80338   0.00000  Uiso   1.00
H274   H     0.07713   0.96785   0.88630   0.00000  Uiso   1.00
H275   H     0.00707   0.97773   0.83283   0.00000  Uiso   1.00
H276   H     0.77458   0.70506   0.89394   0.00000  Uiso   1.00
H277   H     0.80939   0.66912   0.81175   0.00000  Uiso   1.00
H278   H     0.79674   0.77680   0.81977   0.00000  Uiso   1.00
H279   H     0.48644   0.01866   0.25876   0.00000  Uiso   1.00
H280   H     0.42127   0.03340   0.33033   0.00000  Uiso   1.00
H281   H     0.53991   0.08635   0.34081   0.00000  Uiso   1.00
H282   H     0.54297   0.34906   0.28757   0.00000  Uiso   1.00
H283   H     0.60800   0.32128   0.35104   0.00000  Uiso   1.00
H284   H     0.49213   0.28589   0.36499   0.00000  Uiso   1.00
H285   H     0.31102   0.03899   0.82484   0.00000  Uiso   1.00
H286   H     0.20997   0.04940   0.80218   0.00000  Uiso   1.00
H287   H     0.20759  -0.02600   0.87097   0.00000  Uiso   1.00
H288   H     0.31738   0.29571   0.86721   0.00000  Uiso   1.00
H289   H     0.37299   0.24399   0.82218   0.00000  Uiso   1.00
H290   H     0.41812   0.30537   0.90917   0.00000  Uiso   1.00
H291   H     0.60511   0.61991   0.09231   0.00000  Uiso   1.00
H292   H     0.49131   0.57791   0.11481   0.00000  Uiso   1.00
H293   H     0.54659   0.66196   0.04332   0.00000  Uiso   1.00
H294   H     0.30828   0.41581   0.96560   0.00000  Uiso   1.00
H295   H     0.39325   0.45393   0.89668   0.00000  Uiso   1.00
H296   H     0.37604   0.53857   0.94754   0.00000  Uiso   1.00
H297   H     0.54526   0.44832   0.89082   0.00000  Uiso   1.00
H298   H     0.63745   0.52671   0.95779   0.00000  Uiso   1.00
H299   H     0.57521   0.57544   0.90719   0.00000  Uiso   1.00
H300   H     0.45457   0.42693   0.77647   0.00000  Uiso   1.00
H301   H     0.46884   0.35871   0.70158   0.00000  Uiso   1.00
H302   H     0.44786   0.47606   0.69667   0.00000  Uiso   1.00
H303   H     0.61786   0.39965   0.79579   0.00000  Uiso   1.00
H304   H     0.70044   0.51972   0.83291   0.00000  Uiso   1.00
H305   H     0.71159   0.47653   0.74152   0.00000  Uiso   1.00
H306   H     0.57717   0.48521   0.59635   0.00000  Uiso   1.00
H307   H     0.70095   0.54736   0.62078   0.00000  Uiso   1.00
H308   H     0.64871   0.62037   0.62448   0.00000  Uiso   1.00
H309   H     0.20671   0.76264   0.07526   0.00000  Uiso   1.00
H310   H     0.26302   0.69917   0.11691   0.00000  Uiso   1.00
H311   H     0.31397   0.78250   0.04667   0.00000  Uiso   1.00
H312   H     0.48924   0.69687  -0.04965   0.00000  Uiso   1.00
H313   H     0.39234   0.71735  -0.06231   0.00000  Uiso   1.00
H314   H     0.43850   0.72593   0.02359   0.00000  Uiso   1.00
H315   H     0.64589   0.53003   0.48076   0.00000  Uiso   1.00
H316   H     0.66621   0.59721   0.40333   0.00000  Uiso   1.00
H317   H     0.55321   0.50262   0.42294   0.00000  Uiso   1.00
H318   H     0.64871   0.75197   0.37730   0.00000  Uiso   1.00
H319   H     0.59353   0.80179   0.43552   0.00000  Uiso   1.00
H320   H     0.52123   0.67971   0.38837   0.00000  Uiso   1.00
H321   H     0.53536   0.64743   0.59755   0.00000  Uiso   1.00
H322   H     0.47277   0.53054   0.54563   0.00000  Uiso   1.00
H323   H     0.45490   0.62570   0.52375   0.00000  Uiso   1.00
H324   H     0.35992   0.60360   0.28235   0.00000  Uiso   1.00
H325   H     0.26379   0.60970   0.24042   0.00000  Uiso   1.00
H326   H     0.30138   0.65855   0.33032   0.00000  Uiso   1.00
H327   H     0.54255   0.81475   0.31936   0.00000  Uiso   1.00
H328   H     0.46162   0.83015   0.37110   0.00000  Uiso   1.00
H329   H     0.52737   0.92292   0.30920   0.00000  Uiso   1.00
H330   H     0.44301   0.58531   0.82692   0.00000  Uiso   1.00
H331   H     0.44053   0.61894   0.73414   0.00000  Uiso   1.00
H332   H     0.45128   0.69089   0.81028   0.00000  Uiso   1.00
H333   H     0.26083   0.72572   0.77325   0.00000  Uiso   1.00
H334   H     0.31236   0.69137   0.83579   0.00000  Uiso   1.00
H335   H     0.36609   0.72956   0.75347   0.00000  Uiso   1.00
H336   H     0.45290   0.95067   0.72539   0.00000  Uiso   1.00
H337   H     0.46035   1.04097   0.80028   0.00000  Uiso   1.00
H338   H     0.36126   0.96021   0.75180   0.00000  Uiso   1.00
H339   H     0.25824   0.86388   0.88696   0.00000  Uiso   1.00
H340   H     0.36109   0.96734   0.92950   0.00000  Uiso   1.00
H341   H     0.31704   0.83682   0.94850   0.00000  Uiso   1.00
H342   H    -0.10486   0.58541   0.74382   0.00000  Uiso   1.00
H343   H    -0.15412   0.54428   0.82765   0.00000  Uiso   1.00
H344   H    -0.08402   0.50183   0.79573   0.00000  Uiso   1.00
H345   H     0.44259   0.72411   0.64105   0.00000  Uiso   1.00
H346   H     0.49039   0.81045   0.57041   0.00000  Uiso   1.00
H347   H     0.46878   0.84795   0.66158   0.00000  Uiso   1.00
H348   H     0.59469   0.94752   0.76734   0.00000  Uiso   1.00
H349   H     0.62416   1.01430   0.68624   0.00000  Uiso   1.00
H350   H     0.70050   0.99661   0.74181   0.00000  Uiso   1.00
H351   H     0.75259   0.12917   0.20229   0.00000  Uiso   1.00
H352   H     0.65872   0.08913   0.26411   0.00000  Uiso   1.00
H353   H     0.74976   0.21119   0.26810   0.00000  Uiso   1.00
H354   H     0.87737   0.16005   0.48064   0.00000  Uiso   1.00
H355   H     0.81521   0.09166   0.39919   0.00000  Uiso   1.00
H356   H     0.93012   0.15801   0.39864   0.00000  Uiso   1.00
H357   H     0.64534   0.02489   0.86828   0.00000  Uiso   1.00
H358   H     0.61724   0.11304   0.83349   0.00000  Uiso   1.00
H359   H     0.58213   0.07668   0.92390   0.00000  Uiso   1.00
H360   H     0.79600   0.19705   0.79777   0.00000  Uiso   1.00
H361   H     0.88496   0.21082   0.86224   0.00000  Uiso   1.00
H362   H     0.86577   0.31782   0.85274   0.00000  Uiso   1.00
H363   H     0.69041   0.27577   0.98679   0.00000  Uiso   1.00
H364   H     0.72890   0.31995   0.89939   0.00000  Uiso   1.00
H365   H     0.80957   0.35231   0.96858   0.00000  Uiso   1.00
H366   H     0.46721   0.19169   0.86898   0.00000  Uiso   1.00
H367   H     0.57492   0.20752   0.89919   0.00000  Uiso   1.00
H368   H     0.55383   0.30367   0.91980   0.00000  Uiso   1.00
H369   H     0.75839   0.06800   0.62527   0.00000  Uiso   1.00
H370   H     0.84662   0.18623   0.59018   0.00000  Uiso   1.00
H371   H     0.79126   0.19557   0.66927   0.00000  Uiso   1.00
H372   H     0.98234   0.33424   0.67167   0.00000  Uiso   1.00
H373   H     1.04298   0.30755   0.73562   0.00000  Uiso   1.00
H374   H     0.94493   0.32241   0.75906   0.00000  Uiso   1.00
H375   H     0.73177   0.45110   0.23169   0.00000  Uiso   1.00
H376   H     0.69207   0.47930   0.31423   0.00000  Uiso   1.00
H377   H     0.78938   0.57672   0.27546   0.00000  Uiso   1.00
H378   H     0.52941   0.57630   0.22280   0.00000  Uiso   1.00
H379   H     0.62332   0.63993   0.28747   0.00000  Uiso   1.00
H380   H     0.54597   0.51200   0.29291   0.00000  Uiso   1.00
H381   H     0.95483   0.61738   0.98974   0.00000  Uiso   1.00
H382   H     0.85932   0.61070   0.95050   0.00000  Uiso   1.00
H383   H     0.87384   0.50147   0.93787   0.00000  Uiso   1.00
H384   H     0.67283   0.37936   1.06458   0.00000  Uiso   1.00
H385   H     0.68469   0.41759   0.97719   0.00000  Uiso   1.00
H386   H     0.68218   0.49637   1.04833   0.00000  Uiso   1.00
H387   H     0.48325   0.06534   0.54931   0.00000  Uiso   1.00
H388   H     0.48319   0.05017   0.45460   0.00000  Uiso   1.00
H389   H     0.51968   0.17227   0.49716   0.00000  Uiso   1.00
H390   H     0.58784  -0.03919   0.46242   0.00000  Uiso   1.00
H391   H     0.60030  -0.02117   0.55956   0.00000  Uiso   1.00
H392   H     0.70566   0.03354   0.51132   0.00000  Uiso   1.00
H393   H     0.77896   0.24120   0.44757   0.00000  Uiso   1.00
H394   H     0.68857   0.25925   0.41777   0.00000  Uiso   1.00
H395   H     0.68827   0.15191   0.38742   0.00000  Uiso   1.00
H396   H     0.63699   0.74597   0.20956   0.00000  Uiso   1.00
H397   H     0.71670   0.77583   0.14853   0.00000  Uiso   1.00
H398   H     0.65107   0.84292   0.14526   0.00000  Uiso   1.00
H399   H     0.72485   0.93487   0.35109   0.00000  Uiso   1.00
H400   H     0.66603   0.94954   0.27846   0.00000  Uiso   1.00
H401   H     0.78092   1.04379   0.29286   0.00000  Uiso   1.00
H402   H     0.39524   0.69305   0.13495   0.00000  Uiso   1.00
H403   H     0.49930   0.72913   0.18415   0.00000  Uiso   1.00
H404   H     0.48317   0.81681   0.13345   0.00000  Uiso   1.00
H405   H     0.80040   0.61910   0.50242   0.00000  Uiso   1.00
H406   H     0.88573   0.59105   0.47921   0.00000  Uiso   1.00
H407   H     0.80959   0.58187   0.40917   0.00000  Uiso   1.00
H408   H     1.06022   0.79545   0.37264   0.00000  Uiso   1.00
H409   H     1.01878   0.66907   0.40225   0.00000  Uiso   1.00
H410   H     1.07494   0.77591   0.45724   0.00000  Uiso   1.00
H411   H     1.00110   0.83021   0.55498   0.00000  Uiso   1.00
H412   H     0.89731   0.82491   0.53879   0.00000  Uiso   1.00
H413   H     0.98940   0.91661   0.50182   0.00000  Uiso   1.00
H414   H     1.01191   0.98746   0.61867   0.00000  Uiso   1.00
H415   H     1.03962   0.91845   0.67062   0.00000  Uiso   1.00
H416   H     1.04115   1.02218   0.71257   0.00000  Uiso   1.00
H417   H     0.79363   0.70412   0.68744   0.00000  Uiso   1.00
H418   H     0.90732   0.75896   0.72589   0.00000  Uiso   1.00
H419   H     0.89593   0.75387   0.63453   0.00000  Uiso   1.00
loop_
_geom_bond_atom_site_label_1
_geom_bond_atom_site_label_2
_geom_bond_distance
_geom_bond_site_symmetry_2
_ccdc_geom_bond_type
Si1    O53     1.533   .     S
Si1    O93     1.602   .     S
Si1    O83     1.630   1_545 S
Si1    C86     1.892   1_545 S
Si2    O56     1.617   .     S
Si2    O65     1.517   .     S
Si2    C52     1.857   1_455 S
Si2    O133    1.546   1_455 S
Si3    O53     1.612   .     S
Si3    O66     1.612   .     S
Si3    O59     1.590   1_554 S
Si3    O102    1.607   1_554 S
Si4    C54     1.893   .     S
Si4    C57     1.874   .     S
Si4    C55     1.909   1_545 S
Si4    O89     1.554   1_545 S
Si5    O61     1.624   .     S
Si5    O75     1.608   .     S
Si5    O140    1.604   1_455 S
Si5    O147    1.590   1_455 S
Si6    O56     1.576   .     S
Si6    C58     1.890   .     S
Si6    C76     1.882   .     S
Si6    O94     1.573   .     S
Si7    O59     1.564   .     S
Si7    C60     1.880   .     S
Si7    O137    1.639   1_455 S
Si7    O141    1.622   1_455 S
Si8    O61     1.611   .     S
Si8    C62     1.895   .     S
Si8    C63     1.842   .     S
Si8    C64     1.896   .     S
Si9    O65     1.615   .     S
Si9    O66     1.547   .     S
Si9    C67     1.861   .     S
Si9    O71     1.564   .     S
Si10   C68     1.873   .     S
Si10   C69     1.822   .     S
Si10   C70     1.854   1_455 S
Si10   O153    1.594   1_455 S
Si11   O71     1.589   .     S
Si11   C72     1.871   .     S
Si11   C73     1.826   1_554 S
Si11   C74     1.792   1_554 S
Si12   O75     1.580   .     S
Si12   C77     1.817   .     S
Si12   C78     1.835   .     S
Si12   C79     1.882   .     S
Si13   C80     1.874   .     S
Si13   C81     1.916   .     S
Si13   C82     1.835   1_455 S
Si13   O163    1.547   1_455 S
Si14   O83     1.567   .     S
Si14   O87     1.600   .     S
Si14   O166    1.708   1_455 S
Si14   O180    1.615   1_455 S
Si15   C84     1.887   .     S
Si15   C85     1.927   .     S
Si15   O90     1.620   1_554 S
Si15   C129    1.907   1_554 S
Si16   O87     1.578   .     S
Si16   C88     1.851   .     S
Si16   O89     1.628   .     S
Si16   O114    1.634   .     S
Si17   O90     1.563   .     S
Si17   C91     1.848   .     S
Si17   C92     1.892   1_455 S
Si17   O171    1.562   1_455 S
Si18   O95     1.623   .     S
Si18   O134    1.607   .     S
Si18   O113    1.570   1_545 S
Si18   O116    1.658   1_545 S
Si19   O93     1.646   .     S
Si19   O94     1.606   .     S
Si19   O96     1.609   .     S
Si19   O103    1.606   .     S
Si20   O95     1.635   .     S
Si20   O104    1.634   .     S
Si20   O100    1.620   1_554 S
Si20   C146    1.846   1_554 S
Si21   O96     1.563   .     S
Si21   C97     1.866   .     S
Si21   C98     1.846   .     S
Si21   O136    1.618   .     S
Si22   C99     1.869   .     S
Si22   O100    1.599   .     S
Si22   C101    1.838   .     S
Si22   O102    1.615   .     S
Si23   O103    1.602   .     S
Si23   O104    1.682   .     S
Si23   O105    1.619   .     S
Si23   O154    1.697   .     S
Si24   O105    1.593   .     S
Si24   C106    1.804   .     S
Si24   C107    1.954   1_554 S
Si24   C108    1.927   1_554 S
Si25   C109    1.826   .     S
Si25   C110    1.846   .     S
Si25   C111    1.903   .     S
Si25   O124    1.609   .     S
Si26   C112    1.883   .     S
Si26   O113    1.648   .     S
Si26   O114    1.606   .     S
Si26   O119    1.592   .     S
Si27   C115    1.887   .     S
Si27   O116    1.632   .     S
Si27   O126    1.618   1_554 S
Si27   O187    1.661   1_554 S
Si28   C117    1.866   .     S
Si28   C118    1.860   .     S
Si28   C120    1.854   .     S
Si28   O177    1.569   .     S
Si29   O119    1.609   .     S
Si29   C121    1.882   .     S
Si29   C122    1.797   .     S
Si29   C170    1.810   .     S
Si30   C123    1.868   .     S
Si30   O124    1.593   .     S
Si30   O131    1.614   .     S
Si30   O184    1.604   .     S
Si31   C125    1.875   .     S
Si31   O126    1.594   .     S
Si31   C127    1.849   .     S
Si31   C128    1.888   .     S
Si32   C130    1.918   .     S
Si32   O131    1.636   .     S
Si32   C132    1.850   .     S
Si32   O179    1.590   .     S
Si33   O133    1.566   .     S
Si33   O138    1.611   .     S
Si33   O168    1.599   1_545 S
Si33   O173    1.590   1_545 S
Si34   O134    1.631   .     S
Si34   C135    1.844   .     S
Si34   O136    1.623   .     S
Si34   O151    1.568   .     S
Si35   O138    1.618   .     S
Si35   O152    1.639   .     S
Si35   O137    1.580   1_554 S
Si35   O143    1.568   1_554 S
Si36   C139    1.847   .     S
Si36   O140    1.566   .     S
Si36   O178    1.668   1_545 S
Si36   O183    1.622   1_545 S
Si37   O141    1.612   .     S
Si37   O149    1.607   .     S
Si37   O186    1.623   1_545 S
Si37   O191    1.612   1_545 S
Si38   C142    1.855   .     S
Si38   O143    1.587   .     S
Si38   C144    1.817   .     S
Si38   C145    1.783   .     S
Si39   O147    1.612   .     S
Si39   C148    1.858   .     S
Si39   O149    1.627   .     S
Si39   C150    1.836   .     S
Si40   O151    1.669   .     S
Si40   O152    1.588   .     S
Si40   O153    1.625   .     S
Si40   O158    1.649   .     S
Si41   O154    1.676   .     S
Si41   C155    1.864   .     S
Si41   C156    1.873   .     S
Si41   O164    1.630   .     S
Si42   O158    1.634   .     S
Si42   O165    1.604   .     S
Si42   C157    1.798   1_554 S
Si42   C159    1.835   1_554 S
Si43   C160    1.829   .     S
Si43   C161    1.846   .     S
Si43   C162    1.908   .     S
Si43   O163    1.614   .     S
Si44   O164    1.653   .     S
Si44   O165    1.595   .     S
Si44   O166    1.674   .     S
Si44   O172    1.629   .     S
Si45   C167    1.935   .     S
Si45   O168    1.572   .     S
Si45   C169    1.806   .     S
Si45   O181    1.616   .     S
Si46   O172    1.666   .     S
Si46   O173    1.607   .     S
Si46   O171    1.621   1_554 S
Si46   O185    1.638   1_554 S
Si47   C174    1.829   .     S
Si47   C175    1.799   .     S
Si47   C176    1.891   .     S
Si47   O182    1.605   .     S
Si48   O177    1.608   .     S
Si48   O178    1.618   .     S
Si48   O179    1.611   .     S
Si48   O189    1.623   .     S
Si49   O180    1.635   .     S
Si49   O181    1.585   .     S
Si49   O182    1.588   .     S
Si49   O183    1.615   .     S
Si50   O184    1.602   .     S
Si50   O185    1.683   .     S
Si50   O186    1.611   .     S
Si50   O187    1.635   .     S
Si51   C188    1.862   .     S
Si51   O189    1.567   .     S
Si51   C190    1.853   .     S
Si51   O191    1.587   .     S
C52    H192    1.116   .     S
C52    H193    1.170   .     S
C52    H194    1.103   .     S
C52    Si2     1.857   1_655 S
C54    H195    1.080   .     S
C54    H196    1.158   .     S
C54    H197    1.114   .     S
C55    H198    1.087   .     S
C55    H199    1.113   .     S
C55    H200    1.109   .     S
C55    Si4     1.909   1_565 S
C57    H201    1.100   .     S
C57    H202    1.114   .     S
C57    H203    1.096   .     S
C58    H204    1.081   .     S
C58    H205    1.118   .     S
C58    H206    1.143   .     S
O59    Si3     1.590   1_556 S
C60    H207    1.134   .     S
C60    H208    1.077   .     S
C60    H209    1.134   .     S
C62    H210    1.122   .     S
C62    H211    1.117   .     S
C62    H212    1.132   .     S
C63    H213    1.117   .     S
C63    H214    1.107   .     S
C63    H215    1.146   .     S
C64    H216    1.067   .     S
C64    H217    1.102   .     S
C64    H218    1.111   .     S
C67    H219    1.071   .     S
C67    H220    1.105   .     S
C67    H221    1.087   .     S
C68    H222    1.069   .     S
C68    H223    1.106   .     S
C68    H224    1.104   .     S
C69    H225    1.108   .     S
C69    H226    1.101   .     S
C69    H227    1.123   .     S
C70    H228    1.132   .     S
C70    H229    1.091   .     S
C70    H230    1.093   .     S
C70    Si10    1.854   1_655 S
C72    H231    1.170   .     S
C72    H232    1.105   .     S
C72    H233    1.094   .     S
C73    H234    1.100   .     S
C73    H235    1.071   .     S
C73    H236    1.039   .     S
C73    Si11    1.826   1_556 S
C74    H237    1.081   .     S
C74    H238    1.125   .     S
C74    H239    1.115   .     S
C74    Si11    1.792   1_556 S
C76    H240    1.090   .     S
C76    H241    1.070   .     S
C76    H242    1.186   .     S
C77    H243    1.106   .     S
C77    H244    1.105   .     S
C77    H245    1.146   .     S
C78    H246    1.100   .     S
C78    H247    1.071   .     S
C78    H248    1.062   .     S
C79    H249    1.086   .     S
C79    H250    1.087   .     S
C79    H251    1.159   .     S
C80    H252    1.137   .     S
C80    H253    1.144   .     S
C80    H254    1.102   .     S
C81    H255    1.087   .     S
C81    H256    1.095   .     S
C81    H257    1.110   .     S
C82    H258    1.115   .     S
C82    H259    1.085   .     S
C82    H260    1.109   .     S
C82    Si13    1.835   1_655 S
O83    Si1     1.630   1_565 S
C84    H261    1.136   .     S
C84    H262    1.115   .     S
C84    H263    1.069   .     S
C85    H264    1.124   .     S
C85    H265    1.061   .     S
C85    H266    1.043   .     S
C86    H267    1.144   .     S
C86    H268    1.081   .     S
C86    H269    1.118   .     S
C86    Si1     1.892   1_565 S
C88    H270    1.143   .     S
C88    H271    1.108   .     S
C88    H272    1.088   .     S
O89    Si4     1.554   1_565 S
O90    Si15    1.620   1_556 S
C91    H273    1.077   .     S
C91    H274    1.030   .     S
C91    H275    1.018   .     S
C92    H276    1.134   .     S
C92    H277    1.082   .     S
C92    H278    1.141   .     S
C92    Si17    1.892   1_655 S
C97    H279    1.110   .     S
C97    H280    1.103   .     S
C97    H281    1.103   .     S
C98    H282    1.112   .     S
C98    H283    1.118   .     S
C98    H284    1.111   .     S
C99    H285    1.135   .     S
C99    H286    1.134   .     S
C99    H287    1.047   .     S
O100   Si20    1.620   1_556 S
C101   H288    1.056   .     S
C101   H289    1.066   .     S
C101   H290    1.093   .     S
O102   Si3     1.607   1_556 S
C106   H291    1.106   .     S
C106   H292    1.115   .     S
C106   H293    1.106   .     S
C107   H294    1.124   .     S
C107   H295    1.098   .     S
C107   H296    1.071   .     S
C107   Si24    1.954   1_556 S
C108   H297    1.140   .     S
C108   H298    1.116   .     S
C108   H299    1.093   .     S
C108   Si24    1.927   1_556 S
C109   H300    1.114   .     S
C109   H301    1.141   .     S
C109   H302    1.179   .     S
C110   H303    1.090   .     S
C110   H304    1.147   .     S
C110   H305    1.140   .     S
C111   H306    1.152   .     S
C111   H307    1.115   .     S
C111   H308    1.096   .     S
C112   H309    1.126   .     S
C112   H310    1.121   .     S
C112   H311    1.123   .     S
O113   Si18    1.570   1_565 S
C115   H312    1.084   .     S
C115   H313    1.080   .     S
C115   H314    1.077   .     S
O116   Si18    1.658   1_565 S
C117   H315    1.097   .     S
C117   H316    1.092   .     S
C117   H317    1.060   .     S
C118   H318    1.126   .     S
C118   H319    1.092   .     S
C118   H320    1.122   .     S
C120   H321    1.149   .     S
C120   H322    1.114   .     S
C120   H323    1.093   .     S
C121   H324    1.152   .     S
C121   H325    1.088   .     S
C121   H326    1.059   .     S
C122   H327    1.136   .     S
C122   H328    1.091   .     S
C122   H329    1.154   .     S
C123   H330    1.065   .     S
C123   H331    1.097   .     S
C123   H332    1.043   .     S
C125   H333    1.130   .     S
C125   H334    1.049   .     S
C125   H335    1.136   .     S
O126   Si27    1.618   1_556 S
C127   H336    1.105   .     S
C127   H337    1.109   .     S
C127   H338    1.115   .     S
C128   H339    1.151   .     S
C128   H340    1.067   .     S
C128   H341    1.053   .     S
C129   H342    1.089   .     S
C129   H343    1.066   .     S
C129   H344    1.120   .     S
C129   Si15    1.907   1_556 S
C130   H345    1.090   .     S
C130   H346    1.117   .     S
C130   H347    1.103   .     S
C132   H348    1.091   .     S
C132   H349    1.154   .     S
C132   H350    1.039   .     S
O133   Si2     1.546   1_655 S
C135   H351    1.068   .     S
C135   H352    1.101   .     S
C135   H353    1.082   .     S
O137   Si7     1.639   1_655 S
O137   Si35    1.580   1_556 S
C139   H354    1.100   .     S
C139   H355    1.090   .     S
C139   H356    1.089   .     S
O140   Si5     1.604   1_655 S
O141   Si7     1.622   1_655 S
C142   H357    1.134   .     S
C142   H358    1.147   .     S
C142   H359    1.097   .     S
O143   Si35    1.568   1_556 S
C144   H360    1.093   .     S
C144   H361    1.139   .     S
C144   H362    1.160   .     S
C145   H363    1.132   .     S
C145   H364    1.049   .     S
C145   H365    1.079   .     S
C146   H366    1.143   .     S
C146   H367    1.109   .     S
C146   H368    1.113   .     S
C146   Si20    1.846   1_556 S
O147   Si5     1.590   1_655 S
C148   H369    1.165   .     S
C148   H370    1.123   .     S
C148   H371    1.105   .     S
C150   H372    1.156   .     S
C150   H373    1.050   .     S
C150   H374    1.100   .     S
O153   Si10    1.594   1_655 S
C155   H375    1.086   .     S
C155   H376    1.103   .     S
C155   H377    1.125   .     S
C156   H378    1.160   .     S
C156   H379    1.071   .     S
C156   H380    1.058   .     S
C157   H381    1.104   .     S
C157   H382    1.109   .     S
C157   H383    1.100   .     S
C157   Si42    1.798   1_556 S
C159   H384    1.122   .     S
C159   H385    1.065   .     S
C159   H386    1.110   .     S
C159   Si42    1.835   1_556 S
C160   H387    1.123   .     S
C160   H388    1.060   .     S
C160   H389    1.078   .     S
C161   H390    1.185   .     S
C161   H391    1.072   .     S
C161   H392    1.109   .     S
C162   H393    1.054   .     S
C162   H394    1.098   .     S
C162   H395    1.095   .     S
O163   Si13    1.547   1_655 S
O166   Si14    1.708   1_655 S
C167   H396    1.104   .     S
C167   H397    1.069   .     S
C167   H398    1.141   .     S
O168   Si33    1.599   1_565 S
C169   H399    1.111   .     S
C169   H400    1.066   .     S
C169   H401    1.134   .     S
C170   H402    1.069   .     S
C170   H403    1.077   .     S
C170   H404    1.137   .     S
O171   Si17    1.562   1_655 S
O171   Si46    1.621   1_556 S
O173   Si33    1.590   1_565 S
C174   H405    1.149   .     S
C174   H406    1.086   .     S
C174   H407    1.058   .     S
C175   H408    1.117   .     S
C175   H409    1.098   .     S
C175   H410    1.048   .     S
C176   H411    1.121   .     S
C176   H412    1.061   .     S
C176   H413    1.063   .     S
O178   Si36    1.668   1_565 S
O180   Si14    1.615   1_655 S
O183   Si36    1.622   1_565 S
O185   Si46    1.638   1_556 S
O186   Si37    1.623   1_565 S
O187   Si27    1.661   1_556 S
C188   H414    1.078   .     S
C188   H415    1.113   .     S
C188   H416    1.042   .     S
C190   H417    1.085   .     S
C190   H418    1.074   .     S
C190   H419    1.099   .     S
O191   Si37    1.612   1_565 S
