data_333-15-11-10-15-30-13
_audit_creation_date              2025-03-07
_audit_creation_method            'Materials Studio'
_symmetry_space_group_name_H-M    'P1'
_symmetry_Int_Tables_number       1
_symmetry_cell_setting            triclinic
loop_
_symmetry_equiv_pos_as_xyz
  x,y,z
_cell_length_a                    16.0055
_cell_length_b                    15.9374
_cell_length_c                    20.2031
_cell_angle_alpha                 93.3395
_cell_angle_beta                  98.1136
_cell_angle_gamma                 118.4310
loop_
_atom_site_label
_atom_site_type_symbol
_atom_site_fract_x
_atom_site_fract_y
_atom_site_fract_z
_atom_site_U_iso_or_equiv
_atom_site_adp_type
_atom_site_occupancy
Si1    Si    0.14375  -0.02312   0.48814   0.00000  Uiso   1.00
Si2    Si   -0.06250   0.09305   0.61736   0.00000  Uiso   1.00
Si3    Si   -0.01990   0.19438   0.94256   0.00000  Uiso   1.00
Si4    Si    0.13524   0.68100   0.14074   0.00000  Uiso   1.00
Si5    Si    0.24246   0.59801  -0.05738   0.00000  Uiso   1.00
Si6    Si    0.20049   0.40623   0.76473   0.00000  Uiso   1.00
Si7    Si    0.04338   0.53438   0.84549   0.00000  Uiso   1.00
Si8    Si    0.28232   0.76422   0.04555   0.00000  Uiso   1.00
Si9    Si    0.28555   0.92693  -0.02968   0.00000  Uiso   1.00
Si10   Si    0.06868   0.79685   0.39145   0.00000  Uiso   1.00
Si11   Si    0.17287   0.71240   0.77692   0.00000  Uiso   1.00
Si12   Si    0.59205   0.04338   0.07371   0.00000  Uiso   1.00
Si13   Si    0.37501   0.08644   0.27278   0.00000  Uiso   1.00
Si14   Si    0.45389   0.02122   0.50691   0.00000  Uiso   1.00
Si15   Si    0.31586   0.14310   0.58121   0.00000  Uiso   1.00
Si16   Si    0.45327   0.16783   0.42256   0.00000  Uiso   1.00
Si17   Si    0.51357   0.03008   0.76867   0.00000  Uiso   1.00
Si18   Si    0.39245   0.24872   0.86859   0.00000  Uiso   1.00
Si19   Si    0.50575   0.18487   0.67556   0.00000  Uiso   1.00
Si20   Si    0.56372   0.58978  -0.08786   0.00000  Uiso   1.00
Si21   Si    0.38073   0.29784   0.48501   0.00000  Uiso   1.00
Si22   Si    0.30721   0.49461   0.58478   0.00000  Uiso   1.00
Si23   Si    0.26909   0.31342   0.35395   0.00000  Uiso   1.00
Si24   Si    0.51978   0.36611   0.76585   0.00000  Uiso   1.00
Si25   Si    0.37743   0.59693   0.84041   0.00000  Uiso   1.00
Si26   Si    0.49046   0.52178   0.68425   0.00000  Uiso   1.00
Si27   Si    0.57004   0.73116   0.01918   0.00000  Uiso   1.00
Si28   Si    0.53564   0.88293  -0.04721   0.00000  Uiso   1.00
Si29   Si    0.32205   0.87162   0.58875   0.00000  Uiso   1.00
Si30   Si    0.52845   0.72187   0.76320   0.00000  Uiso   1.00
Si31   Si    0.37065   0.88384   0.85415   0.00000  Uiso   1.00
Si32   Si    0.49393   0.86270   0.66557   0.00000  Uiso   1.00
Si33   Si    0.89040  -0.04091   0.13344   0.00000  Uiso   1.00
Si34   Si    0.64808   0.15970   0.59885   0.00000  Uiso   1.00
Si35   Si    0.79316   0.13094   0.38972   0.00000  Uiso   1.00
Si36   Si    0.84535   0.05821   0.80991   0.00000  Uiso   1.00
Si37   Si    0.69925   0.20457   0.85724   0.00000  Uiso   1.00
Si38   Si    0.81541   0.16045   0.68961   0.00000  Uiso   1.00
Si39   Si    0.83129   0.40278   0.26933   0.00000  Uiso   1.00
Si40   Si    0.90013   0.56707  -0.08044   0.00000  Uiso   1.00
Si41   Si    0.79185   0.26054   0.50588   0.00000  Uiso   1.00
Si42   Si    0.55718   0.48075   0.56088   0.00000  Uiso   1.00
Si43   Si    0.82196   0.41864   0.41437   0.00000  Uiso   1.00
Si44   Si    0.86041   0.33707   0.78056   0.00000  Uiso   1.00
Si45   Si    0.69785   0.54220   0.83456   0.00000  Uiso   1.00
Si46   Si    0.70224   0.80161   0.15623   0.00000  Uiso   1.00
Si47   Si    0.84502   0.87345  -0.01614   0.00000  Uiso   1.00
Si48   Si    0.59452   0.85001   0.55206   0.00000  Uiso   1.00
Si49   Si    0.62638   0.62147   0.22932   0.00000  Uiso   1.00
Si50   Si    0.81954   0.66365   0.74028   0.00000  Uiso   1.00
Si51   Si    0.69444   0.89250   0.87193   0.00000  Uiso   1.00
C52    C     0.10947   0.04564   0.43207   0.00000  Uiso   1.00
C53    C     0.05623   0.93085   0.54457   0.00000  Uiso   1.00
C54    C     0.05220   0.14932   0.68544   0.00000  Uiso   1.00
C55    C    -0.02722   0.11546   0.53623   0.00000  Uiso   1.00
C56    C     0.87588  -0.04281   0.61466   0.00000  Uiso   1.00
C57    C     0.10440   0.20351   0.95468   0.00000  Uiso   1.00
C58    C     0.91998   0.13095   1.00910   0.00000  Uiso   1.00
C59    C     0.21608   0.67426   0.21434   0.00000  Uiso   1.00
C60    C     1.04139   0.55639   0.11379   0.00000  Uiso   1.00
C61    C     0.23686   0.51992   0.00938   0.00000  Uiso   1.00
C62    C    -0.01026   0.31364   0.96322   0.00000  Uiso   1.00
C63    C     0.14469   0.36951   0.83984   0.00000  Uiso   1.00
C64    C     0.25969   0.33508   0.74370   0.00000  Uiso   1.00
C65    C     0.10184   0.39305   0.69433   0.00000  Uiso   1.00
O66    O     0.13136   0.54418   0.90383   0.00000  Uiso   1.00
O67    O     0.18727   0.72366   0.07812   0.00000  Uiso   1.00
O68    O     0.25752   0.69459  -0.02104   0.00000  Uiso   1.00
C69    C     0.38395   0.76648   0.10880   0.00000  Uiso   1.00
O70    O     0.30955   0.86832   0.02432   0.00000  Uiso   1.00
C71    C     0.31642   1.04481   0.00984   0.00000  Uiso   1.00
C72    C     0.15204   0.85688   0.94841   0.00000  Uiso   1.00
C73    C     0.01582   0.82951   0.31174   0.00000  Uiso   1.00
C74    C    -0.04312   0.71939   0.42581   0.00000  Uiso   1.00
O75    O     0.14032   0.89132   0.44528   0.00000  Uiso   1.00
C76    C     0.12937   0.72901   0.35922   0.00000  Uiso   1.00
O77    O     0.09751   0.60833   0.79633   0.00000  Uiso   1.00
C78    C     0.17514   0.67956   0.68942   0.00000  Uiso   1.00
C79    C     0.11089   0.78940   0.76804   0.00000  Uiso   1.00
C80    C     0.60727   0.16578   0.05730   0.00000  Uiso   1.00
C81    C     0.71938   0.06691   0.09456   0.00000  Uiso   1.00
C82    C     0.52031   0.99609   0.14105   0.00000  Uiso   1.00
C83    C     0.38247  -0.02641   0.26582   0.00000  Uiso   1.00
C84    C     0.47939   0.17598   0.24255   0.00000  Uiso   1.00
C85    C     0.25926   0.05824   0.22035   0.00000  Uiso   1.00
C86    C     0.42978   0.93842   0.43312   0.00000  Uiso   1.00
O87    O     0.25060   0.04411   0.53012   0.00000  Uiso   1.00
C88    C     0.24359   0.14664   0.64369   0.00000  Uiso   1.00
O89    O     0.38189   0.11598   0.35085   0.00000  Uiso   1.00
O90    O     0.42767   0.09462   0.47411   0.00000  Uiso   1.00
C91    C     0.57434   0.22040   0.41323   0.00000  Uiso   1.00
C92    C     0.32154   0.11960   0.82822   0.00000  Uiso   1.00
C93    C     0.46894   0.24721   0.94700   0.00000  Uiso   1.00
C94    C     0.30836   0.28983   0.89189   0.00000  Uiso   1.00
O95    O     0.41516   0.14915   0.61554   0.00000  Uiso   1.00
O96    O     0.48083   0.09748   0.72418   0.00000  Uiso   1.00
C97    C     0.55533   0.49327  -0.03129   0.00000  Uiso   1.00
O98    O     0.33426   0.23123   0.54073   0.00000  Uiso   1.00
O99    O     0.43682   0.25282   0.44928   0.00000  Uiso   1.00
C100   C     0.19437   0.37738   0.54905   0.00000  Uiso   1.00
C101   C     0.35420   0.53810   0.50845   0.00000  Uiso   1.00
C102   C     0.28554   0.59061   0.61656   0.00000  Uiso   1.00
C103   C     0.37113   0.35064   0.30514   0.00000  Uiso   1.00
O104   O     0.29973   0.30205   0.43036   0.00000  Uiso   1.00
C105   C     0.16747   0.18795   0.31438   0.00000  Uiso   1.00
O106   O     0.44987   0.31761   0.81605   0.00000  Uiso   1.00
O107   O     0.52150   0.28744   0.71626   0.00000  Uiso   1.00
O108   O     0.28750   0.51437   0.78376   0.00000  Uiso   1.00
O109   O     0.45473   0.56188   0.87319   0.00000  Uiso   1.00
O110   O     0.32294   0.62465   0.89243   0.00000  Uiso   1.00
O111   O     0.38148   0.48610   0.64086   0.00000  Uiso   1.00
O112   O     0.48233   0.43351   0.72528   0.00000  Uiso   1.00
C113   C     0.48893   0.62601   0.05865   0.00000  Uiso   1.00
O114   O     0.60152   0.68635  -0.03731   0.00000  Uiso   1.00
O115   O     0.52510   0.79553  -0.00600   0.00000  Uiso   1.00
O116   O     0.54667   0.97088   0.00334   0.00000  Uiso   1.00
C117   C     0.22486   0.77221   0.52422   0.00000  Uiso   1.00
O118   O     0.38232   0.96738   0.55812   0.00000  Uiso   1.00
C119   C     0.26559   0.90781   0.65088   0.00000  Uiso   1.00
O120   O     0.44395   0.68481   0.80493   0.00000  Uiso   1.00
O121   O     0.53579   0.62836   0.73216   0.00000  Uiso   1.00
O122   O     0.28100   0.77869   0.81538   0.00000  Uiso   1.00
O123   O     0.44169   0.85348   0.89633   0.00000  Uiso   1.00
O124   O     0.42458   0.96133   0.80521   0.00000  Uiso   1.00
O125   O     0.33553   0.93252   0.90430   0.00000  Uiso   1.00
O126   O     0.38628   0.83427   0.62875   0.00000  Uiso   1.00
O127   O     0.50202   0.77694   0.70243   0.00000  Uiso   1.00
O128   O     0.53166   0.95759   0.72092   0.00000  Uiso   1.00
C129   C     0.91561   0.07335   0.18360   0.00000  Uiso   1.00
C130   C     1.01123  -0.03147   0.15256   0.00000  Uiso   1.00
O131   O     0.56377   0.07328   0.54311   0.00000  Uiso   1.00
O132   O     0.59437   0.20290   0.63583   0.00000  Uiso   1.00
C133   C     0.92077   0.20916   0.37724   0.00000  Uiso   1.00
C134   C     0.70423   0.12822   0.32219   0.00000  Uiso   1.00
C135   C     0.78843   0.00842   0.38163   0.00000  Uiso   1.00
O136   O     0.91972   0.14827   0.86668   0.00000  Uiso   1.00
C137   C     0.90273   0.98554   0.78678   0.00000  Uiso   1.00
O138   O     0.61440   0.10340   0.81497   0.00000  Uiso   1.00
C139   C     0.73101   0.16191   0.93413   0.00000  Uiso   1.00
C140   C     0.65040   0.28098   0.88139   0.00000  Uiso   1.00
O141   O     0.86965   0.13615   0.63488   0.00000  Uiso   1.00
O142   O     0.71053   0.13462   0.65039   0.00000  Uiso   1.00
O143   O     0.80503   0.09150   0.74582   0.00000  Uiso   1.00
C144   C     0.91546   0.35684   0.24449   0.00000  Uiso   1.00
C145   C     0.87889   0.53627   0.25838   0.00000  Uiso   1.00
C146   C     0.72100   0.33048   0.20378   0.00000  Uiso   1.00
C147   C     0.21827   0.39664   0.35252   0.00000  Uiso   1.00
O148   O     0.97664   0.57667   0.87331   0.00000  Uiso   1.00
C149   C     0.88055   0.45695  -0.03951   0.00000  Uiso   1.00
C150   C     0.96203   0.66779  -0.00774   0.00000  Uiso   1.00
O151   O     0.71888   0.24106   0.55981   0.00000  Uiso   1.00
O152   O     0.77568   0.16517   0.46058   0.00000  Uiso   1.00
C153   C     0.91730   0.32821   0.55841   0.00000  Uiso   1.00
O154   O     0.45267   0.40465   0.52085   0.00000  Uiso   1.00
C155   C     0.63385   0.42342   0.58023   0.00000  Uiso   1.00
C156   C     0.61680   0.56630   0.50386   0.00000  Uiso   1.00
O157   O     0.55352   0.53104   0.63094   0.00000  Uiso   1.00
C158   C     1.07776   0.75142   0.17191   0.00000  Uiso   1.00
C159   C     0.95619   0.48960   0.44748   0.00000  Uiso   1.00
O160   O     0.80511   0.37785   0.33972   0.00000  Uiso   1.00
O161   O     0.77525   0.32963   0.45402   0.00000  Uiso   1.00
C162   C     0.75324   0.48383   0.42169   0.00000  Uiso   1.00
O163   O     0.79728   0.26739   0.83116   0.00000  Uiso   1.00
O164   O     0.87118   0.26824   0.72702   0.00000  Uiso   1.00
C165   C     0.79618   0.39509   0.73727   0.00000  Uiso   1.00
O166   O     0.96794   0.42264   0.81722   0.00000  Uiso   1.00
O167   O     0.62271   0.43472   0.81098   0.00000  Uiso   1.00
O168   O     0.79740   0.55466   0.88305   0.00000  Uiso   1.00
O169   O     0.64334   0.59733   0.86422   0.00000  Uiso   1.00
O170   O     0.66263   0.79758   0.07809   0.00000  Uiso   1.00
O171   O     0.81617   0.87022   0.16329   0.00000  Uiso   1.00
C172   C     0.65508   0.85829   0.20896   0.00000  Uiso   1.00
C173   C     0.97395   0.93230   0.97145   0.00000  Uiso   1.00
C174   C     0.81268   0.75181   0.00761   0.00000  Uiso   1.00
O175   O     0.84980   0.94044   0.04985   0.00000  Uiso   1.00
C176   C     0.49531   0.77170   0.47932   0.00000  Uiso   1.00
C177   C     0.64398   0.78313   0.59075   0.00000  Uiso   1.00
C178   C     0.68786   0.95273   0.51713   0.00000  Uiso   1.00
O179   O     0.56019   0.89299   0.60932   0.00000  Uiso   1.00
C180   C     0.61596   0.50407   0.20793   0.00000  Uiso   1.00
O181   O     0.67169   0.69425   0.17611   0.00000  Uiso   1.00
C182   C     0.50369   0.59797   0.23166   0.00000  Uiso   1.00
C183   C     0.70439   0.67842   0.31610   0.00000  Uiso   1.00
O184   O     0.73220   0.58754   0.76731   0.00000  Uiso   1.00
C185   C     0.88709   0.61751   0.69447   0.00000  Uiso   1.00
C186   C     0.77339   0.71529   0.67748   0.00000  Uiso   1.00
C187   C     0.90502   0.76865   0.80607   0.00000  Uiso   1.00
O188   O     0.62940   0.79881   0.81331   0.00000  Uiso   1.00
O189   O     0.76933   0.86811   0.91752   0.00000  Uiso   1.00
O190   O     0.75433   0.98600   0.83877   0.00000  Uiso   1.00
O191   O     0.63017   0.91038   0.92135   0.00000  Uiso   1.00
H192   H     0.02670   0.01483   0.41769   0.00000  Uiso   1.00
H193   H     0.12916   0.02341   0.38662   0.00000  Uiso   1.00
H194   H     0.15625   0.12564   0.44338   0.00000  Uiso   1.00
H195   H     0.05828   0.87204   0.57117   0.00000  Uiso   1.00
H196   H    -0.01595   0.89014   0.51313   0.00000  Uiso   1.00
H197   H     0.05442   0.98169   0.58249   0.00000  Uiso   1.00
H198   H     0.08050   0.09904   0.69083   0.00000  Uiso   1.00
H199   H     0.04669   0.17845   0.73718   0.00000  Uiso   1.00
H200   H     0.09848   0.21253   0.66190   0.00000  Uiso   1.00
H201   H    -0.07472   0.13619   0.50612   0.00000  Uiso   1.00
H202   H    -0.03679   0.04602   0.51025   0.00000  Uiso   1.00
H203   H     0.04800   0.17183   0.54559   0.00000  Uiso   1.00
H204   H     0.93052  -0.06468   0.63422   0.00000  Uiso   1.00
H205   H     0.84280  -0.08143   0.56081   0.00000  Uiso   1.00
H206   H     0.82639  -0.05828   0.64822   0.00000  Uiso   1.00
H207   H     0.11333   0.18285   1.00578   0.00000  Uiso   1.00
H208   H     0.15975   0.28020   0.95868   0.00000  Uiso   1.00
H209   H     0.10634   0.15332   0.91460   0.00000  Uiso   1.00
H210   H     0.96549   0.10514   1.04196   0.00000  Uiso   1.00
H211   H     0.84697   0.06960   0.98622   0.00000  Uiso   1.00
H212   H     0.91017   0.17819   1.04446   0.00000  Uiso   1.00
H213   H     0.28612   0.74259   0.24309   0.00000  Uiso   1.00
H214   H     0.23380   0.61796   0.19483   0.00000  Uiso   1.00
H215   H     0.17431   0.64779   0.25485   0.00000  Uiso   1.00
H216   H     1.02349   0.51525   0.15910   0.00000  Uiso   1.00
H217   H     1.07015   0.53016   0.07901   0.00000  Uiso   1.00
H218   H     0.97433   0.55060   0.08581   0.00000  Uiso   1.00
H219   H     0.26591   0.47142  -0.00578   0.00000  Uiso   1.00
H220   H     0.16129   0.46825   0.01348   0.00000  Uiso   1.00
H221   H     0.28049   0.56004   0.05608   0.00000  Uiso   1.00
H222   H    -0.08280   0.30898   0.95726   0.00000  Uiso   1.00
H223   H     0.03550   0.37059   0.93582   0.00000  Uiso   1.00
H224   H     0.02618   0.33588   1.01957   0.00000  Uiso   1.00
H225   H     0.11916   0.29046   0.84061   0.00000  Uiso   1.00
H226   H     0.08793   0.38803   0.83926   0.00000  Uiso   1.00
H227   H     0.20726   0.41207   0.88399   0.00000  Uiso   1.00
H228   H     0.22487   0.25956   0.75288   0.00000  Uiso   1.00
H229   H     0.33562   0.37950   0.77300   0.00000  Uiso   1.00
H230   H     0.26912   0.33828   0.68944   0.00000  Uiso   1.00
H231   H     0.03805   0.32127   0.67706   0.00000  Uiso   1.00
H232   H     0.13818   0.42933   0.65587   0.00000  Uiso   1.00
H233   H     0.06842   0.43520   0.71323   0.00000  Uiso   1.00
H234   H     0.45521   0.79677   0.09233   0.00000  Uiso   1.00
H235   H     0.36578   0.69822   0.13086   0.00000  Uiso   1.00
H236   H     0.38645   0.81670   0.15252   0.00000  Uiso   1.00
H237   H     0.29319   1.03059   0.05912   0.00000  Uiso   1.00
H238   H     0.27419   1.06656  -0.02377   0.00000  Uiso   1.00
H239   H     0.39625   1.08731   0.01827   0.00000  Uiso   1.00
H240   H     0.13324   0.77764   0.93446   0.00000  Uiso   1.00
H241   H     0.11650   0.87678   0.90735   0.00000  Uiso   1.00
H242   H     0.12152   0.85471   0.99519   0.00000  Uiso   1.00
H243   H    -0.03350   0.76352   0.27735   0.00000  Uiso   1.00
H244   H     0.07354   0.88034   0.28665   0.00000  Uiso   1.00
H245   H    -0.02188   0.87198   0.32429   0.00000  Uiso   1.00
H246   H    -0.08731   0.75264   0.42306   0.00000  Uiso   1.00
H247   H    -0.03115   0.70991   0.48001   0.00000  Uiso   1.00
H248   H    -0.08498   0.65344   0.38744   0.00000  Uiso   1.00
H249   H     0.09483   0.69978   0.30626   0.00000  Uiso   1.00
H250   H     0.11572   0.67357   0.39347   0.00000  Uiso   1.00
H251   H     0.20592   0.78237   0.35572   0.00000  Uiso   1.00
H252   H     0.11930   0.68274   0.65484   0.00000  Uiso   1.00
H253   H     0.15850   0.60366   0.68268   0.00000  Uiso   1.00
H254   H     0.24538   0.72492   0.67550   0.00000  Uiso   1.00
H255   H     0.16942   0.86303   0.77854   0.00000  Uiso   1.00
H256   H     0.06591   0.76837   0.80569   0.00000  Uiso   1.00
H257   H     0.07468   0.78314   0.71321   0.00000  Uiso   1.00
H258   H     0.55465   0.17813   0.08058   0.00000  Uiso   1.00
H259   H     0.59951   0.16855   0.00302   0.00000  Uiso   1.00
H260   H     0.68280   0.22409   0.07023   0.00000  Uiso   1.00
H261   H     0.76540   0.12863   0.06921   0.00000  Uiso   1.00
H262   H     0.71697  -0.00150   0.08422   0.00000  Uiso   1.00
H263   H     0.74921   0.09412   0.14727   0.00000  Uiso   1.00
H264   H     0.54122   0.94638   0.16411   0.00000  Uiso   1.00
H265   H     0.44120   0.95685   0.12289   0.00000  Uiso   1.00
H266   H     0.54761   1.05781   0.18280   0.00000  Uiso   1.00
H267   H     0.36149  -0.05304   0.21167   0.00000  Uiso   1.00
H268   H     0.32452  -0.07809   0.28636   0.00000  Uiso   1.00
H269   H     0.45646  -0.01771   0.28708   0.00000  Uiso   1.00
H270   H     0.48312   0.24538   0.25667   0.00000  Uiso   1.00
H271   H     0.46480   0.15763   0.18801   0.00000  Uiso   1.00
H272   H     0.54673   0.17782   0.26982   0.00000  Uiso   1.00
H273   H     0.24851   0.03191   0.16570   0.00000  Uiso   1.00
H274   H     0.25879   0.12603   0.22615   0.00000  Uiso   1.00
H275   H     0.20298   0.01149   0.24546   0.00000  Uiso   1.00
H276   H     0.49562   0.96463   0.41021   0.00000  Uiso   1.00
H277   H     0.37094   0.93586   0.39521   0.00000  Uiso   1.00
H278   H     0.39129   0.86290   0.44406   0.00000  Uiso   1.00
H279   H     0.21684   0.08359   0.67364   0.00000  Uiso   1.00
H280   H     0.18299   0.15042   0.61524   0.00000  Uiso   1.00
H281   H     0.29311   0.21251   0.68036   0.00000  Uiso   1.00
H282   H     0.57981   0.25694   0.36899   0.00000  Uiso   1.00
H283   H     0.59343   0.15839   0.41174   0.00000  Uiso   1.00
H284   H     0.60920   0.26979   0.45960   0.00000  Uiso   1.00
H285   H     0.27967   0.11271   0.78067   0.00000  Uiso   1.00
H286   H     0.27288   0.07554   0.85834   0.00000  Uiso   1.00
H287   H     0.37297   0.09009   0.82806   0.00000  Uiso   1.00
H288   H     0.48484   0.18929   0.93935   0.00000  Uiso   1.00
H289   H     0.42768   0.23560   0.98863   0.00000  Uiso   1.00
H290   H     0.53027   0.31603   0.96504   0.00000  Uiso   1.00
H291   H     0.34253   0.37191   0.89177   0.00000  Uiso   1.00
H292   H     0.30594   0.27734   0.94531   0.00000  Uiso   1.00
H293   H     0.23462   0.24993   0.85718   0.00000  Uiso   1.00
H294   H     0.47891   0.43495  -0.03728   0.00000  Uiso   1.00
H295   H     0.58820   0.52608   0.02360   0.00000  Uiso   1.00
H296   H     0.59200   0.45704  -0.05150   0.00000  Uiso   1.00
H297   H     0.14288   0.39064   0.51891   0.00000  Uiso   1.00
H298   H     0.15582   0.33587   0.58881   0.00000  Uiso   1.00
H299   H     0.21058   0.33241   0.51213   0.00000  Uiso   1.00
H300   H     0.30270   0.56010   0.48229   0.00000  Uiso   1.00
H301   H     0.35691   0.48409   0.46863   0.00000  Uiso   1.00
H302   H     0.42711   0.59813   0.52671   0.00000  Uiso   1.00
H303   H     0.21996   0.58658   0.58682   0.00000  Uiso   1.00
H304   H     0.34481   0.65543   0.60697   0.00000  Uiso   1.00
H305   H     0.28414   0.58739   0.67050   0.00000  Uiso   1.00
H306   H     0.43895   0.41159   0.33376   0.00000  Uiso   1.00
H307   H     0.34826   0.36200   0.25198   0.00000  Uiso   1.00
H308   H     0.38980   0.29262   0.30180   0.00000  Uiso   1.00
H309   H     0.19489   0.13821   0.33006   0.00000  Uiso   1.00
H310   H     0.16085   0.18990   0.26079   0.00000  Uiso   1.00
H311   H     0.10201   0.17356   0.33393   0.00000  Uiso   1.00
H312   H     0.48050   0.66080   0.10287   0.00000  Uiso   1.00
H313   H     0.52521   0.58669   0.07480   0.00000  Uiso   1.00
H314   H     0.42024   0.58034   0.02066   0.00000  Uiso   1.00
H315   H     0.20785   0.70030   0.54286   0.00000  Uiso   1.00
H316   H     0.25430   0.77150   0.48062   0.00000  Uiso   1.00
H317   H     0.16271   0.78273   0.51843   0.00000  Uiso   1.00
H318   H     0.18630   0.86529   0.64377   0.00000  Uiso   1.00
H319   H     0.29308   0.98687   0.64899   0.00000  Uiso   1.00
H320   H     0.29725   0.89933   0.69854   0.00000  Uiso   1.00
H321   H     0.97286   0.08862   0.22454   0.00000  Uiso   1.00
H322   H     0.84683   0.05716   0.19795   0.00000  Uiso   1.00
H323   H     0.93387   0.12798   0.14979   0.00000  Uiso   1.00
H324   H     1.04062  -0.02641   0.20832   0.00000  Uiso   1.00
H325   H     1.06809   0.03896   0.13612   0.00000  Uiso   1.00
H326   H     1.00727  -0.09407   0.12923   0.00000  Uiso   1.00
H327   H     0.97824   0.21583   0.41708   0.00000  Uiso   1.00
H328   H     0.93111   0.28045   0.37312   0.00000  Uiso   1.00
H329   H     0.92842   0.18400   0.32786   0.00000  Uiso   1.00
H330   H     0.62715   0.06778   0.32273   0.00000  Uiso   1.00
H331   H     0.72677   0.11633   0.27512   0.00000  Uiso   1.00
H332   H     0.71347   0.20209   0.32466   0.00000  Uiso   1.00
H333   H     0.81101  -0.00202   0.33405   0.00000  Uiso   1.00
H334   H     0.71300  -0.05055   0.37903   0.00000  Uiso   1.00
H335   H     0.83592   0.00204   0.42173   0.00000  Uiso   1.00
H336   H     0.84772   0.91222   0.76024   0.00000  Uiso   1.00
H337   H     0.92879   0.97165   0.83479   0.00000  Uiso   1.00
H338   H     0.96241   1.02537   0.76078   0.00000  Uiso   1.00
H339   H     0.77934   0.13633   0.91998   0.00000  Uiso   1.00
H340   H     0.66882   0.10283   0.94949   0.00000  Uiso   1.00
H341   H     0.77489   0.22140   0.97540   0.00000  Uiso   1.00
H342   H     0.64823   0.28429   0.93540   0.00000  Uiso   1.00
H343   H     0.57977   0.25032   0.85048   0.00000  Uiso   1.00
H344   H     0.68984   0.35388   0.86862   0.00000  Uiso   1.00
H345   H     0.92564   0.35804   0.19152   0.00000  Uiso   1.00
H346   H     0.87154   0.28001   0.24375   0.00000  Uiso   1.00
H347   H     0.98295   0.38462   0.27864   0.00000  Uiso   1.00
H348   H     0.93916   0.57937   0.30278   0.00000  Uiso   1.00
H349   H     0.82874   0.56237   0.26404   0.00000  Uiso   1.00
H350   H     0.90940   0.54838   0.21353   0.00000  Uiso   1.00
H351   H     0.65956   0.33272   0.21738   0.00000  Uiso   1.00
H352   H     0.70776   0.25799   0.18900   0.00000  Uiso   1.00
H353   H     0.73460   0.36780   0.15997   0.00000  Uiso   1.00
H354   H     0.26886   0.47519   0.35937   0.00000  Uiso   1.00
H355   H     0.17355   0.37516   0.39191   0.00000  Uiso   1.00
H356   H     0.17173   0.38165   0.30328   0.00000  Uiso   1.00
H357   H     0.95313   0.46647  -0.01407   0.00000  Uiso   1.00
H358   H     0.84401   0.39635  -0.08055   0.00000  Uiso   1.00
H359   H     0.83001   0.44590  -0.00159   0.00000  Uiso   1.00
H360   H     0.96935   0.73424  -0.02700   0.00000  Uiso   1.00
H361   H     1.03294   0.68158   0.01336   0.00000  Uiso   1.00
H362   H     0.92432   0.64979   0.03579   0.00000  Uiso   1.00
H363   H     0.93489   0.40036   0.57817   0.00000  Uiso   1.00
H364   H     0.96933   0.32465   0.53092   0.00000  Uiso   1.00
H365   H     0.90870   0.30485   0.60819   0.00000  Uiso   1.00
H366   H     0.65267   0.42405   0.63738   0.00000  Uiso   1.00
H367   H     0.70515   0.46126   0.56062   0.00000  Uiso   1.00
H368   H     0.59973   0.35296   0.55030   0.00000  Uiso   1.00
H369   H     0.58267   0.61315   0.50475   0.00000  Uiso   1.00
H370   H     0.58732   0.52159   0.45431   0.00000  Uiso   1.00
H371   H     0.69800   0.61507   0.52302   0.00000  Uiso   1.00
H372   H     1.13480   0.81982   0.20541   0.00000  Uiso   1.00
H373   H     1.02752   0.70643   0.19983   0.00000  Uiso   1.00
H374   H     1.03828   0.77061   0.12986   0.00000  Uiso   1.00
H375   H     0.99349   0.56046   0.42536   0.00000  Uiso   1.00
H376   H     0.99015   0.44952   0.43078   0.00000  Uiso   1.00
H377   H     0.97014   0.49779   0.50194   0.00000  Uiso   1.00
H378   H     0.79024   0.53948   0.46550   0.00000  Uiso   1.00
H379   H     0.68828   0.43039   0.43531   0.00000  Uiso   1.00
H380   H     0.75329   0.51968   0.37547   0.00000  Uiso   1.00
H381   H     0.71575   0.34356   0.71713   0.00000  Uiso   1.00
H382   H     0.83466   0.42230   0.69674   0.00000  Uiso   1.00
H383   H     0.80569   0.45207   0.77793   0.00000  Uiso   1.00
H384   H     0.67945   0.85956   0.26161   0.00000  Uiso   1.00
H385   H     0.57236   0.81590   0.19779   0.00000  Uiso   1.00
H386   H     0.68002   0.92934   0.19184   0.00000  Uiso   1.00
H387   H     1.02568   0.94445   1.01561   0.00000  Uiso   1.00
H388   H     0.98720   1.00402   0.95794   0.00000  Uiso   1.00
H389   H     0.98782   0.89575   0.92912   0.00000  Uiso   1.00
H390   H     0.86870   0.75898   0.05156   0.00000  Uiso   1.00
H391   H     0.79588   0.69901  -0.03999   0.00000  Uiso   1.00
H392   H     0.74812   0.72190   0.03109   0.00000  Uiso   1.00
H393   H     0.42155   0.74339   0.49333   0.00000  Uiso   1.00
H394   H     0.51146   0.71256   0.46630   0.00000  Uiso   1.00
H395   H     0.49964   0.81035   0.43141   0.00000  Uiso   1.00
H396   H     0.69944   0.77710   0.56483   0.00000  Uiso   1.00
H397   H     0.58575   0.71016   0.59513   0.00000  Uiso   1.00
H398   H     0.67832   0.82463   0.63932   0.00000  Uiso   1.00
H399   H     0.64301   0.97758   0.48725   0.00000  Uiso   1.00
H400   H     0.72800   0.92704   0.49046   0.00000  Uiso   1.00
H401   H     0.74992   1.01646   0.54893   0.00000  Uiso   1.00
H402   H     0.54480   0.45562   0.17697   0.00000  Uiso   1.00
H403   H     0.63033   0.47694   0.25761   0.00000  Uiso   1.00
H404   H     0.67060   0.51982   0.17528   0.00000  Uiso   1.00
H405   H     0.50347   0.66511   0.24634   0.00000  Uiso   1.00
H406   H     0.46949   0.55065   0.26823   0.00000  Uiso   1.00
H407   H     0.45704   0.56062   0.18249   0.00000  Uiso   1.00
H408   H     0.71437   0.75183   0.32659   0.00000  Uiso   1.00
H409   H     0.77457   0.67623   0.32193   0.00000  Uiso   1.00
H410   H     0.66615   0.63609   0.35322   0.00000  Uiso   1.00
H411   H     0.93338   0.66643   0.66247   0.00000  Uiso   1.00
H412   H     0.82719   0.55891   0.65678   0.00000  Uiso   1.00
H413   H     0.92633   0.58738   0.72787   0.00000  Uiso   1.00
H414   H     0.83664   0.78889   0.67526   0.00000  Uiso   1.00
H415   H     0.71186   0.72169   0.69084   0.00000  Uiso   1.00
H416   H     0.75088   0.66306   0.62873   0.00000  Uiso   1.00
H417   H     0.96518   0.82653   0.79035   0.00000  Uiso   1.00
H418   H     0.92632   0.73754   0.84655   0.00000  Uiso   1.00
H419   H     0.86172   0.79746   0.83114   0.00000  Uiso   1.00
loop_
_geom_bond_atom_site_label_1
_geom_bond_atom_site_label_2
_geom_bond_distance
_geom_bond_site_symmetry_2
_ccdc_geom_bond_type
Si1    C52     1.824   .     S
Si1    O87     1.591   .     S
Si1    C53     1.836   1_545 S
Si1    O75     1.546   1_545 S
Si2    C54     1.908   .     S
Si2    C55     1.808   .     S
Si2    C56     1.898   1_455 S
Si2    O141    1.602   1_455 S
Si3    C57     1.903   .     S
Si3    C62     1.850   .     S
Si3    C58     1.831   1_455 S
Si3    O136    1.612   1_455 S
Si4    C59     1.872   .     S
Si4    O67     1.617   .     S
Si4    C60     1.816   1_455 S
Si4    C158    1.889   1_455 S
Si5    C61     1.871   .     S
Si5    O68     1.559   .     S
Si5    O66     1.609   1_554 S
Si5    O110    1.663   1_554 S
Si6    C63     1.852   .     S
Si6    C64     1.856   .     S
Si6    C65     1.891   .     S
Si6    O108    1.595   .     S
Si7    O66     1.642   .     S
Si7    O77     1.591   .     S
Si7    O148    1.650   1_455 S
Si7    O166    1.611   1_455 S
Si8    O67     1.600   .     S
Si8    O68     1.567   .     S
Si8    C69     1.906   .     S
Si8    O70     1.604   .     S
Si9    O70     1.598   .     S
Si9    C71     1.800   .     S
Si9    C72     1.847   1_554 S
Si9    O125    1.635   1_554 S
Si10   C73     1.927   .     S
Si10   C74     1.885   .     S
Si10   O75     1.606   .     S
Si10   C76     1.906   .     S
Si11   O77     1.632   .     S
Si11   C78     1.825   .     S
Si11   C79     1.912   .     S
Si11   O122    1.581   .     S
Si12   C80     1.903   .     S
Si12   C81     1.866   .     S
Si12   C82     1.864   1_545 S
Si12   O116    1.613   1_545 S
Si13   C83     1.857   .     S
Si13   C84     1.822   .     S
Si13   C85     1.831   .     S
Si13   O89     1.593   .     S
Si14   O90     1.569   .     S
Si14   O131    1.579   .     S
Si14   C86     1.799   1_545 S
Si14   O118    1.619   1_545 S
Si15   O87     1.607   .     S
Si15   C88     1.844   .     S
Si15   O95     1.597   .     S
Si15   O98     1.593   .     S
Si16   O89     1.607   .     S
Si16   O90     1.556   .     S
Si16   C91     1.752   .     S
Si16   O99     1.578   .     S
Si17   O96     1.659   .     S
Si17   O138    1.580   .     S
Si17   O124    1.637   1_545 S
Si17   O128    1.618   1_545 S
Si18   C92     1.873   .     S
Si18   C93     1.869   .     S
Si18   C94     1.856   .     S
Si18   O106    1.621   .     S
Si19   O95     1.592   .     S
Si19   O96     1.675   .     S
Si19   O107    1.675   .     S
Si19   O132    1.643   .     S
Si20   C97     1.934   .     S
Si20   O114    1.592   .     S
Si20   O109    1.641   1_554 S
Si20   O169    1.671   1_554 S
Si21   O98     1.604   .     S
Si21   O99     1.606   .     S
Si21   O104    1.610   .     S
Si21   O154    1.582   .     S
Si22   C100    1.880   .     S
Si22   C101    1.838   .     S
Si22   C102    1.824   .     S
Si22   O111    1.583   .     S
Si23   C103    1.895   .     S
Si23   O104    1.600   .     S
Si23   C105    1.906   .     S
Si23   C147    1.856   .     S
Si24   O106    1.570   .     S
Si24   O107    1.572   .     S
Si24   O112    1.662   .     S
Si24   O167    1.577   .     S
Si25   O108    1.634   .     S
Si25   O109    1.659   .     S
Si25   O110    1.622   .     S
Si25   O120    1.588   .     S
Si26   O111    1.643   .     S
Si26   O112    1.636   .     S
Si26   O121    1.669   .     S
Si26   O157    1.544   .     S
Si27   C113    1.872   .     S
Si27   O114    1.574   .     S
Si27   O115    1.577   .     S
Si27   O170    1.611   .     S
Si28   O115    1.617   .     S
Si28   O116    1.608   .     S
Si28   O123    1.601   1_554 S
Si28   O191    1.599   1_554 S
Si29   C117    1.863   .     S
Si29   O118    1.587   .     S
Si29   C119    1.859   .     S
Si29   O126    1.571   .     S
Si30   O120    1.584   .     S
Si30   O121    1.645   .     S
Si30   O127    1.670   .     S
Si30   O188    1.627   .     S
Si31   O122    1.650   .     S
Si31   O123    1.597   .     S
Si31   O124    1.617   .     S
Si31   O125    1.559   .     S
Si32   O126    1.607   .     S
Si32   O127    1.643   .     S
Si32   O128    1.626   .     S
Si32   O179    1.602   .     S
Si33   C129    1.864   .     S
Si33   C130    1.849   .     S
Si33   O171    1.575   1_545 S
Si33   O175    1.677   1_545 S
Si34   O131    1.615   .     S
Si34   O132    1.567   .     S
Si34   O142    1.542   .     S
Si34   O151    1.600   .     S
Si35   C133    1.883   .     S
Si35   C134    1.810   .     S
Si35   C135    1.914   .     S
Si35   O152    1.610   .     S
Si36   O136    1.609   .     S
Si36   O143    1.595   .     S
Si36   C137    1.864   1_545 S
Si36   O190    1.584   1_545 S
Si37   O138    1.613   .     S
Si37   C139    1.834   .     S
Si37   C140    1.810   .     S
Si37   O163    1.594   .     S
Si38   O141    1.633   .     S
Si38   O142    1.595   .     S
Si38   O143    1.597   .     S
Si38   O164    1.586   .     S
Si39   C144    1.921   .     S
Si39   C145    1.927   .     S
Si39   C146    1.850   .     S
Si39   O160    1.559   .     S
Si40   C149    1.892   .     S
Si40   C150    1.875   .     S
Si40   O148    1.599   1_554 S
Si40   O168    1.618   1_554 S
Si41   O151    1.643   .     S
Si41   O152    1.616   .     S
Si41   C153    1.877   .     S
Si41   O161    1.648   .     S
Si42   O154    1.580   .     S
Si42   C155    1.862   .     S
Si42   C156    1.831   .     S
Si42   O157    1.608   .     S
Si43   C159    1.880   .     S
Si43   O160    1.541   .     S
Si43   O161    1.583   .     S
Si43   C162    1.851   .     S
Si44   O163    1.629   .     S
Si44   O164    1.580   .     S
Si44   C165    1.850   .     S
Si44   O166    1.630   .     S
Si45   O167    1.546   .     S
Si45   O168    1.665   .     S
Si45   O169    1.646   .     S
Si45   O184    1.618   .     S
Si46   O170    1.602   .     S
Si46   O171    1.597   .     S
Si46   C172    1.812   .     S
Si46   O181    1.633   .     S
Si47   C174    1.865   .     S
Si47   O175    1.628   .     S
Si47   C173    1.879   1_554 S
Si47   O189    1.644   1_554 S
Si48   C176    1.865   .     S
Si48   C177    1.761   .     S
Si48   C178    1.874   .     S
Si48   O179    1.598   .     S
Si49   C180    1.817   .     S
Si49   O181    1.610   .     S
Si49   C182    1.824   .     S
Si49   C183    1.891   .     S
Si50   O184    1.550   .     S
Si50   C185    1.878   .     S
Si50   C186    1.808   .     S
Si50   C187    1.867   .     S
Si51   O188    1.638   .     S
Si51   O189    1.616   .     S
Si51   O190    1.589   .     S
Si51   O191    1.635   .     S
C52    H192    1.156   .     S
C52    H193    1.104   .     S
C52    H194    1.117   .     S
C53    H195    1.119   .     S
C53    H196    1.091   .     S
C53    H197    1.096   .     S
C53    Si1     1.836   1_565 S
C54    H198    1.096   .     S
C54    H199    1.151   .     S
C54    H200    1.111   .     S
C55    H201    1.091   .     S
C55    H202    1.128   .     S
C55    H203    1.086   .     S
C56    H204    1.119   .     S
C56    H205    1.137   .     S
C56    H206    1.064   .     S
C56    Si2     1.898   1_655 S
C57    H207    1.112   .     S
C57    H208    1.106   .     S
C57    H209    1.119   .     S
C58    H210    1.149   .     S
C58    H211    1.115   .     S
C58    H212    1.088   .     S
C58    Si3     1.831   1_655 S
C59    H213    1.166   .     S
C59    H214    1.128   .     S
C59    H215    1.105   .     S
C60    H216    1.147   .     S
C60    H217    1.059   .     S
C60    H218    1.099   .     S
C60    Si4     1.816   1_655 S
C61    H219    1.123   .     S
C61    H220    1.112   .     S
C61    H221    1.051   .     S
C62    H222    1.116   .     S
C62    H223    1.098   .     S
C62    H224    1.153   .     S
C63    H225    1.126   .     S
C63    H226    1.079   .     S
C63    H227    1.135   .     S
C64    H228    1.100   .     S
C64    H229    1.121   .     S
C64    H230    1.128   .     S
C65    H231    1.102   .     S
C65    H232    1.066   .     S
C65    H233    1.120   .     S
O66    Si5     1.609   1_556 S
C69    H234    1.116   .     S
C69    H235    1.122   .     S
C69    H236    1.140   .     S
C71    H237    1.110   .     S
C71    H238    1.077   .     S
C71    H239    1.105   .     S
C72    H240    1.156   .     S
C72    H241    1.087   .     S
C72    H242    1.119   .     S
C72    Si9     1.847   1_556 S
C73    H243    1.087   .     S
C73    H244    1.111   .     S
C73    H245    1.140   .     S
C74    H246    1.065   .     S
C74    H247    1.116   .     S
C74    H248    1.115   .     S
O75    Si1     1.546   1_565 S
C76    H249    1.094   .     S
C76    H250    1.112   .     S
C76    H251    1.126   .     S
C78    H252    1.077   .     S
C78    H253    1.103   .     S
C78    H254    1.098   .     S
C79    H255    1.081   .     S
C79    H256    1.079   .     S
C79    H257    1.151   .     S
C80    H258    1.108   .     S
C80    H259    1.092   .     S
C80    H260    1.098   .     S
C81    H261    1.117   .     S
C81    H262    1.079   .     S
C81    H263    1.075   .     S
C82    H264    1.099   .     S
C82    H265    1.103   .     S
C82    H266    1.123   .     S
C82    Si12    1.864   1_565 S
C83    H267    1.094   .     S
C83    H268    1.064   .     S
C83    H269    1.140   .     S
C84    H270    1.097   .     S
C84    H271    1.086   .     S
C84    H272    1.125   .     S
C85    H273    1.117   .     S
C85    H274    1.084   .     S
C85    H275    1.076   .     S
C86    H276    1.113   .     S
C86    H277    1.110   .     S
C86    H278    1.114   .     S
C86    Si14    1.799   1_565 S
C88    H279    1.137   .     S
C88    H280    1.085   .     S
C88    H281    1.109   .     S
C91    H282    1.086   .     S
C91    H283    1.165   .     S
C91    H284    1.076   .     S
C92    H285    1.058   .     S
C92    H286    1.064   .     S
C92    H287    1.126   .     S
C93    H288    1.077   .     S
C93    H289    1.112   .     S
C93    H290    1.061   .     S
C94    H291    1.153   .     S
C94    H292    1.111   .     S
C94    H293    1.135   .     S
C97    H294    1.112   .     S
C97    H295    1.134   .     S
C97    H296    1.099   .     S
C100   H297    1.065   .     S
C100   H298    1.130   .     S
C100   H299    1.143   .     S
C101   H300    1.121   .     S
C101   H301    1.164   .     S
C101   H302    1.090   .     S
C102   H303    1.105   .     S
C102   H304    1.071   .     S
C102   H305    1.097   .     S
C103   H306    1.100   .     S
C103   H307    1.138   .     S
C103   H308    1.100   .     S
C105   H309    1.115   .     S
C105   H310    1.077   .     S
C105   H311    1.098   .     S
O109   Si20    1.641   1_556 S
O110   Si5     1.663   1_556 S
C113   H312    1.082   .     S
C113   H313    1.074   .     S
C113   H314    1.124   .     S
O116   Si12    1.613   1_565 S
C117   H315    1.145   .     S
C117   H316    1.058   .     S
C117   H317    1.077   .     S
O118   Si14    1.619   1_565 S
C119   H318    1.099   .     S
C119   H319    1.125   .     S
C119   H320    1.070   .     S
O123   Si28    1.601   1_556 S
O124   Si17    1.637   1_565 S
O125   Si9     1.635   1_556 S
O128   Si17    1.618   1_565 S
C129   H321    1.065   .     S
C129   H322    1.091   .     S
C129   H323    1.093   .     S
C130   H324    1.140   .     S
C130   H325    1.164   .     S
C130   H326    1.048   .     S
C133   H327    1.093   .     S
C133   H328    1.077   .     S
C133   H329    1.098   .     S
C134   H330    1.150   .     S
C134   H331    1.101   .     S
C134   H332    1.112   .     S
C135   H333    1.104   .     S
C135   H334    1.113   .     S
C135   H335    1.074   .     S
O136   Si3     1.612   1_655 S
C137   H336    1.115   .     S
C137   H337    1.078   .     S
C137   H338    1.093   .     S
C137   Si36    1.864   1_565 S
C139   H339    1.093   .     S
C139   H340    1.097   .     S
C139   H341    1.094   .     S
C140   H342    1.095   .     S
C140   H343    1.070   .     S
C140   H344    1.094   .     S
O141   Si2     1.602   1_655 S
C144   H345    1.105   .     S
C144   H346    1.081   .     S
C144   H347    1.067   .     S
C145   H348    1.122   .     S
C145   H349    1.081   .     S
C145   H350    1.074   .     S
C146   H351    1.073   .     S
C146   H352    1.085   .     S
C146   H353    1.085   .     S
C147   H354    1.107   .     S
C147   H355    1.105   .     S
C147   H356    1.093   .     S
O148   Si7     1.650   1_655 S
O148   Si40    1.599   1_556 S
C149   H357    1.136   .     S
C149   H358    1.093   .     S
C149   H359    1.152   .     S
C150   H360    1.109   .     S
C150   H361    1.065   .     S
C150   H362    1.111   .     S
C153   H363    1.080   .     S
C153   H364    1.085   .     S
C153   H365    1.097   .     S
C155   H366    1.150   .     S
C155   H367    1.150   .     S
C155   H368    1.081   .     S
C156   H369    1.116   .     S
C156   H370    1.093   .     S
C156   H371    1.142   .     S
C158   H372    1.128   .     S
C158   H373    1.051   .     S
C158   H374    1.130   .     S
C158   Si4     1.889   1_655 S
C159   H375    1.150   .     S
C159   H376    1.084   .     S
C159   H377    1.079   .     S
C162   H378    1.087   .     S
C162   H379    1.071   .     S
C162   H380    1.123   .     S
C165   H381    1.142   .     S
C165   H382    1.080   .     S
C165   H383    1.126   .     S
O166   Si7     1.611   1_655 S
O168   Si40    1.618   1_556 S
O169   Si20    1.671   1_556 S
O171   Si33    1.575   1_565 S
C172   H384    1.075   .     S
C172   H385    1.143   .     S
C172   H386    1.102   .     S
C173   H387    1.067   .     S
C173   H388    1.117   .     S
C173   H389    1.113   .     S
C173   Si47    1.879   1_556 S
C174   H390    1.128   .     S
C174   H391    1.150   .     S
C174   H392    1.103   .     S
O175   Si33    1.677   1_565 S
C176   H393    1.131   .     S
C176   H394    1.117   .     S
C176   H395    1.170   .     S
C177   H396    1.130   .     S
C177   H397    1.110   .     S
C177   H398    1.062   .     S
C178   H399    1.101   .     S
C178   H400    1.092   .     S
C178   H401    1.102   .     S
C180   H402    1.091   .     S
C180   H403    1.152   .     S
C180   H404    1.112   .     S
C182   H405    1.095   .     S
C182   H406    1.096   .     S
C182   H407    1.094   .     S
C183   H408    1.106   .     S
C183   H409    1.130   .     S
C183   H410    1.090   .     S
C185   H411    1.104   .     S
C185   H412    1.109   .     S
C185   H413    1.134   .     S
C186   H414    1.136   .     S
C186   H415    1.105   .     S
C186   H416    1.145   .     S
C187   H417    1.074   .     S
C187   H418    1.077   .     S
C187   H419    1.150   .     S
O189   Si47    1.644   1_556 S
O190   Si36    1.584   1_565 S
O191   Si28    1.599   1_556 S
