data_333-15-11-10-15-30-2
_audit_creation_date              2025-03-07
_audit_creation_method            'Materials Studio'
_symmetry_space_group_name_H-M    'P1'
_symmetry_Int_Tables_number       1
_symmetry_cell_setting            triclinic
loop_
_symmetry_equiv_pos_as_xyz
  x,y,z
_cell_length_a                    16.0544
_cell_length_b                    15.6753
_cell_length_c                    18.9756
_cell_angle_alpha                 95.9417
_cell_angle_beta                  90.6809
_cell_angle_gamma                 118.3544
loop_
_atom_site_label
_atom_site_type_symbol
_atom_site_fract_x
_atom_site_fract_y
_atom_site_fract_z
_atom_site_U_iso_or_equiv
_atom_site_adp_type
_atom_site_occupancy
Si1    Si    0.21807   0.03145   0.08913   0.00000  Uiso   1.00
Si2    Si    0.00028   0.15992   0.22196   0.00000  Uiso   1.00
Si3    Si    0.12783  -0.00721   0.43854   0.00000  Uiso   1.00
Si4    Si   -0.00443   0.19913   0.51924   0.00000  Uiso   1.00
Si5    Si    0.14058   0.15035   0.33451   0.00000  Uiso   1.00
Si6    Si   -0.00420   0.17900   0.85436   0.00000  Uiso   1.00
Si7    Si    0.20724   0.20489   0.68125   0.00000  Uiso   1.00
Si8    Si    0.16279   0.33717   0.15990   0.00000  Uiso   1.00
Si9    Si    0.19193   0.46283   0.03821   0.00000  Uiso   1.00
Si10   Si    0.18295   0.33344   0.45914   0.00000  Uiso   1.00
Si11   Si    0.00885   0.48833   0.53241   0.00000  Uiso   1.00
Si12   Si    0.19361   0.50611   0.38519   0.00000  Uiso   1.00
Si13   Si    0.11086   0.31421   0.74889   0.00000  Uiso   1.00
Si14   Si    0.14066   0.45780   0.64388   0.00000  Uiso   1.00
Si15   Si   -0.00320   0.77087   0.23989   0.00000  Uiso   1.00
Si16   Si    0.16375   0.67201   0.46912   0.00000  Uiso   1.00
Si17   Si   -0.06536   0.83936   0.51363   0.00000  Uiso   1.00
Si18   Si    0.14730   0.81405   0.36639   0.00000  Uiso   1.00
Si19   Si    0.15996   0.62552   0.75303   0.00000  Uiso   1.00
Si20   Si    0.03134   0.84576   0.88317   0.00000  Uiso   1.00
Si21   Si    0.53682   0.09446   0.07555   0.00000  Uiso   1.00
Si22   Si    0.28933   0.12429   0.24981   0.00000  Uiso   1.00
Si23   Si    0.29088   0.17622   0.54543   0.00000  Uiso   1.00
Si24   Si    0.31768   0.47638   0.27393   0.00000  Uiso   1.00
Si25   Si    0.45892   0.30643   0.46036   0.00000  Uiso   1.00
Si26   Si    0.32592   0.45360   0.58174   0.00000  Uiso   1.00
Si27   Si    0.44653   0.42850   0.35598   0.00000  Uiso   1.00
Si28   Si    0.54531   0.35590   0.77831   0.00000  Uiso   1.00
Si29   Si    0.50813   0.47919   0.67504   0.00000  Uiso   1.00
Si30   Si    0.48279   0.58309   0.18075   0.00000  Uiso   1.00
Si31   Si    0.26408   0.75984   0.26860   0.00000  Uiso   1.00
Si32   Si    0.43907   0.67874   0.57406   0.00000  Uiso   1.00
Si33   Si    0.30516   0.86464   0.54884   0.00000  Uiso   1.00
Si34   Si    0.54358   0.63672   0.80175   0.00000  Uiso   1.00
Si35   Si    0.89086   0.05366   0.07595   0.00000  Uiso   1.00
Si36   Si    0.71608   0.21746   0.16686   0.00000  Uiso   1.00
Si37   Si    0.88585   0.19787  -0.02237   0.00000  Uiso   1.00
Si38   Si    0.66082   0.02492   0.36170   0.00000  Uiso   1.00
Si39   Si    0.83174   0.18941   0.28672   0.00000  Uiso   1.00
Si40   Si    0.84207  -0.02078   0.77555   0.00000  Uiso   1.00
Si41   Si    0.73158   0.15425   0.86299   0.00000  Uiso   1.00
Si42   Si    0.87704   0.35752   0.08062   0.00000  Uiso   1.00
Si43   Si    0.86469   0.35332   0.40592   0.00000  Uiso   1.00
Si44   Si    0.64415   0.48464   0.55446   0.00000  Uiso   1.00
Si45   Si    0.81944   0.51266   0.35786   0.00000  Uiso   1.00
Si46   Si    0.72027   0.48940   0.87792   0.00000  Uiso   1.00
Si47   Si    0.82106   0.46602   0.60745   0.00000  Uiso   1.00
Si48   Si    0.71789   0.90710   0.13626   0.00000  Uiso   1.00
Si49   Si    0.88772   0.87869  -0.02639   0.00000  Uiso   1.00
Si50   Si    0.75727   0.63728   0.45509   0.00000  Uiso   1.00
Si51   Si    0.71217   0.82962   0.87154   0.00000  Uiso   1.00
C52    C     0.31012   0.12310   0.04078   0.00000  Uiso   1.00
C53    C     0.20265   0.91117   0.05428   0.00000  Uiso   1.00
C54    C     0.91901   0.22875   0.58034   0.00000  Uiso   1.00
O55    O     0.05939   0.13198   0.27622   0.00000  Uiso   1.00
O56    O     0.11352   0.05173   0.37421   0.00000  Uiso   1.00
C57    C     0.08288   0.13938   0.87499   0.00000  Uiso   1.00
C58    C     0.01524   0.10286   0.54876   0.00000  Uiso   1.00
C59    C     0.14975   0.07237   0.68650   0.00000  Uiso   1.00
C60    C     0.30763   0.26518   0.74599   0.00000  Uiso   1.00
O61    O     0.06689   0.26455   0.19430   0.00000  Uiso   1.00
C62    C     0.22645   0.26938   0.12231   0.00000  Uiso   1.00
O63    O     0.14369   0.39054   0.09755   0.00000  Uiso   1.00
C64    C     0.22291   0.58879   0.07964   0.00000  Uiso   1.00
C65    C     0.10188   0.44899   0.96597   0.00000  Uiso   1.00
C66    C     0.28142   0.43965   0.99778   0.00000  Uiso   1.00
O67    O     0.09732   0.28530   0.51016   0.00000  Uiso   1.00
O68    O     0.17170   0.25238   0.38903   0.00000  Uiso   1.00
C69    C     0.08232   0.44141   0.32407   0.00000  Uiso   1.00
O70    O     0.17975   0.43268   0.44179   0.00000  Uiso   1.00
O71    O     0.02651   0.25093   0.79525   0.00000  Uiso   1.00
O72    O     0.13361   0.24277   0.69987   0.00000  Uiso   1.00
C73    C     0.22175   0.40745   0.80352   0.00000  Uiso   1.00
O74    O     0.06963   0.45046   0.57779   0.00000  Uiso   1.00
O75    O     0.08873   0.37838   0.69911   0.00000  Uiso   1.00
C76    C     0.06856   0.88678   0.20598   0.00000  Uiso   1.00
C77    C     0.10590   1.03498   0.06520   0.00000  Uiso   1.00
C78    C     0.88269   0.76605   0.26676   0.00000  Uiso   1.00
C79    C     0.97283   0.66535   0.17049   0.00000  Uiso   1.00
O80    O     0.08192   0.59821   0.51676   0.00000  Uiso   1.00
O81    O     0.20002   0.60906   0.41783   0.00000  Uiso   1.00
C82    C    -0.02011   0.81575   0.59698   0.00000  Uiso   1.00
O83    O     0.02142   0.91871   0.46937   0.00000  Uiso   1.00
C84    C     0.85049   0.88641   0.54344   0.00000  Uiso   1.00
O85    O     0.05526   0.77442   0.31160   0.00000  Uiso   1.00
O86    O     0.12788   0.73711   0.42325   0.00000  Uiso   1.00
O87    O     0.16681   0.91983   0.40470   0.00000  Uiso   1.00
C88    C     0.05777   0.54590   0.80271   0.00000  Uiso   1.00
O89    O     0.17833   0.56192   0.68990   0.00000  Uiso   1.00
C90    C     0.12703   0.70669   0.71089   0.00000  Uiso   1.00
C91    C     0.26487   0.70286   0.81144   0.00000  Uiso   1.00
C92    C     0.03506   0.75321   0.93487   0.00000  Uiso   1.00
C93    C     0.15734   0.93423   0.86934   0.00000  Uiso   1.00
C94    C     0.98196   0.76791   0.79817   0.00000  Uiso   1.00
C95    C     0.53190   0.20834   0.04875   0.00000  Uiso   1.00
C96    C     0.51853   1.00469  -0.00460   0.00000  Uiso   1.00
O97    O     0.24116   0.05597   0.17604   0.00000  Uiso   1.00
C98    C     0.31381   0.06007   0.31546   0.00000  Uiso   1.00
C99    C     0.40898   0.22065   0.23844   0.00000  Uiso   1.00
O100   O     0.22692   0.16647   0.28496   0.00000  Uiso   1.00
O101   O     0.20889   0.08089   0.49648   0.00000  Uiso   1.00
C102   C     0.36491   0.14354   0.59441   0.00000  Uiso   1.00
O103   O     0.24137   0.21510   0.60558   0.00000  Uiso   1.00
O104   O     0.22867   0.41666   0.22256   0.00000  Uiso   1.00
O105   O     0.28609   0.52286   0.34067   0.00000  Uiso   1.00
O106   O     0.36231   0.26022   0.50454   0.00000  Uiso   1.00
C107   C     0.51463   0.22329   0.44590   0.00000  Uiso   1.00
O108   O     0.27981   0.37664   0.51078   0.00000  Uiso   1.00
O109   O     0.23620   0.45014   0.62514   0.00000  Uiso   1.00
O110   O     0.36295   0.41598   0.30399   0.00000  Uiso   1.00
O111   O     0.42566   0.33518   0.39382   0.00000  Uiso   1.00
C112   C     0.55801   0.44282   0.31636   0.00000  Uiso   1.00
C113   C     0.47506   0.29923   0.85495   0.00000  Uiso   1.00
C114   C     0.56379   0.25675   0.72688   0.00000  Uiso   1.00
O115   O     0.40331   0.43936   0.62810   0.00000  Uiso   1.00
O116   O     0.49915   0.40039   0.72492   0.00000  Uiso   1.00
O117   O     0.39994   0.55778   0.23290   0.00000  Uiso   1.00
C118   C     0.50504   0.47728   0.14986   0.00000  Uiso   1.00
C119   C     0.45789   0.62896   0.10076   0.00000  Uiso   1.00
C120   C     0.17413   0.63403   0.24472   0.00000  Uiso   1.00
C121   C     0.36493   0.74595   0.30178   0.00000  Uiso   1.00
C122   C     0.29012   0.80953   0.18335   0.00000  Uiso   1.00
C123   C     0.44128   1.02120   0.13079   0.00000  Uiso   1.00
O124   O     0.23323   0.82070   0.32212   0.00000  Uiso   1.00
O125   O     0.38208   0.56088   0.55641   0.00000  Uiso   1.00
C126   C     0.46370   0.53288   0.42482   0.00000  Uiso   1.00
C127   C     0.56691   0.72902   0.60377   0.00000  Uiso   1.00
C128   C     0.44146   0.73509   0.49457   0.00000  Uiso   1.00
C129   C     0.38473   0.70492   0.64774   0.00000  Uiso   1.00
O130   O     0.24774   0.74981   0.52203   0.00000  Uiso   1.00
C131   C     0.39088   0.90228   0.62362   0.00000  Uiso   1.00
C132   C     0.36531   0.93661   0.46858   0.00000  Uiso   1.00
C133   C     0.21264   0.89279   0.58075   0.00000  Uiso   1.00
C134   C     0.50857   0.55469   0.87258   0.00000  Uiso   1.00
O135   O     0.53826   0.58000   0.72200   0.00000  Uiso   1.00
C136   C     0.46852   0.69197   0.80674   0.00000  Uiso   1.00
O137   O     0.95514   0.08368   0.15186   0.00000  Uiso   1.00
O138   O     0.63498   0.13000   0.11852   0.00000  Uiso   1.00
C139   C     0.65394   0.26186   0.22790   0.00000  Uiso   1.00
O140   O     0.97125   0.22242   0.92865   0.00000  Uiso   1.00
O141   O     0.89858   0.14727   0.04276   0.00000  Uiso   1.00
C142   C     0.65246   0.04376   0.46203   0.00000  Uiso   1.00
C143   C     0.94283   0.15494   0.42741   0.00000  Uiso   1.00
C144   C     0.55343   1.03163   0.32210   0.00000  Uiso   1.00
C145   C     0.65628   0.90540   0.34296   0.00000  Uiso   1.00
O146   O     0.91951   0.16771   0.26676   0.00000  Uiso   1.00
O147   O     0.77936   0.18613   0.21126   0.00000  Uiso   1.00
O148   O     0.75936   0.10271   0.33172   0.00000  Uiso   1.00
C149   C     0.78564  -0.00530   0.68941   0.00000  Uiso   1.00
O150   O     0.90156   0.08298   0.82256   0.00000  Uiso   1.00
C151   C     0.89875   0.90781   0.74657   0.00000  Uiso   1.00
C152   C     0.62768   0.03766   0.81399   0.00000  Uiso   1.00
O153   O     0.79006   0.13765   0.92553   0.00000  Uiso   1.00
C154   C     0.80545   0.22186   0.79709   0.00000  Uiso   1.00
C155   C     0.68256   0.22875   0.91356   0.00000  Uiso   1.00
O156   O     0.77794   0.29692   0.11429   0.00000  Uiso   1.00
O157   O     0.89390   0.29961   0.01023   0.00000  Uiso   1.00
C158   C     0.88342   0.46892   0.05591   0.00000  Uiso   1.00
C159   C     0.97017   0.39336   0.14892   0.00000  Uiso   1.00
C160   C     0.77471   0.26683   0.45629   0.00000  Uiso   1.00
O161   O     0.86860   0.29230   0.33446   0.00000  Uiso   1.00
O162   O     0.96201   0.41596   0.45683   0.00000  Uiso   1.00
O163   O     0.54711   0.40591   0.50150   0.00000  Uiso   1.00
O164   O     0.60037   0.50270   0.62897   0.00000  Uiso   1.00
C165   C     0.93970   0.59830   0.37320   0.00000  Uiso   1.00
C166   C     0.79279   0.48892   0.25752   0.00000  Uiso   1.00
O167   O     0.81817   0.42006   0.39065   0.00000  Uiso   1.00
O168   O     0.64747   0.43480   0.80916   0.00000  Uiso   1.00
C169   C     0.83765   0.49109   0.86768   0.00000  Uiso   1.00
C170   C     0.74724   0.61808   0.88568   0.00000  Uiso   1.00
C171   C     0.66849   0.44766   0.96729   0.00000  Uiso   1.00
O172   O     0.91417   0.49328   0.56521   0.00000  Uiso   1.00
O173   O     0.72168   0.44696   0.56436   0.00000  Uiso   1.00
C174   C     0.79783   0.36098   0.65517   0.00000  Uiso   1.00
C175   C     0.84869   0.56070   0.68631   0.00000  Uiso   1.00
C176   C     0.58848   0.68492   0.22933   0.00000  Uiso   1.00
C177   C     0.67560   0.78681   0.08173   0.00000  Uiso   1.00
C178   C     0.79058   0.90954   0.21252   0.00000  Uiso   1.00
O179   O     0.78481   0.98838   0.09233   0.00000  Uiso   1.00
C180   C     0.61066   0.91831   0.15914   0.00000  Uiso   1.00
O181   O     0.97373   0.89479   0.92255   0.00000  Uiso   1.00
C182   C     0.88119   0.79155   0.04222   0.00000  Uiso   1.00
O183   O     0.91165   0.98342   0.01757   0.00000  Uiso   1.00
O184   O     0.69634   0.58195   0.52044   0.00000  Uiso   1.00
O185   O     0.75826   0.55381   0.40084   0.00000  Uiso   1.00
C186   C     0.69677   0.69546   0.41294   0.00000  Uiso   1.00
O187   O     0.86750   0.72498   0.47680   0.00000  Uiso   1.00
O188   O     0.65040   0.72561   0.82582   0.00000  Uiso   1.00
O189   O     0.78839   0.82766   0.92395   0.00000  Uiso   1.00
O190   O     0.75724   0.91518   0.82119   0.00000  Uiso   1.00
C191   C     0.63857   0.86071   0.93236   0.00000  Uiso   1.00
H192   H     0.28179   0.15692   0.00455   0.00000  Uiso   1.00
H193   H     0.34302   0.08527   0.01307   0.00000  Uiso   1.00
H194   H     0.34798   0.17963   0.08212   0.00000  Uiso   1.00
H195   H     0.26252   0.89730   0.06962   0.00000  Uiso   1.00
H196   H     0.20012   0.90311  -0.00501   0.00000  Uiso   1.00
H197   H     0.14214   0.86421   0.07676   0.00000  Uiso   1.00
H198   H     0.84844   0.17028   0.56755   0.00000  Uiso   1.00
H199   H     0.91662   0.29192   0.56782   0.00000  Uiso   1.00
H200   H     0.93574   0.23326   0.63750   0.00000  Uiso   1.00
H201   H     0.06777   0.10194   0.92255   0.00000  Uiso   1.00
H202   H     0.15526   0.20301   0.87883   0.00000  Uiso   1.00
H203   H     0.08686   0.09221   0.82874   0.00000  Uiso   1.00
H204   H     0.09172   0.12040   0.55446   0.00000  Uiso   1.00
H205   H    -0.02064   0.04055   0.50669   0.00000  Uiso   1.00
H206   H    -0.01634   0.08705   0.60103   0.00000  Uiso   1.00
H207   H     0.14274   0.02667   0.63548   0.00000  Uiso   1.00
H208   H     0.07643   0.04418   0.70600   0.00000  Uiso   1.00
H209   H     0.19298   0.05559   0.72848   0.00000  Uiso   1.00
H210   H     0.33662   0.33998   0.73952   0.00000  Uiso   1.00
H211   H     0.35865   0.23759   0.72528   0.00000  Uiso   1.00
H212   H     0.28839   0.25396   0.79909   0.00000  Uiso   1.00
H213   H     0.29719   0.31927   0.11793   0.00000  Uiso   1.00
H214   H     0.19029   0.24032   0.06800   0.00000  Uiso   1.00
H215   H     0.22260   0.21011   0.14860   0.00000  Uiso   1.00
H216   H     0.25823   0.63789   0.03778   0.00000  Uiso   1.00
H217   H     0.27574   0.61253   0.12511   0.00000  Uiso   1.00
H218   H     0.15836   0.59405   0.09222   0.00000  Uiso   1.00
H219   H     0.08299   0.38400   0.92434   0.00000  Uiso   1.00
H220   H     0.14294   0.51036   0.93639   0.00000  Uiso   1.00
H221   H     0.04885   0.46714   0.99211   0.00000  Uiso   1.00
H222   H     0.32771   0.49783   0.96652   0.00000  Uiso   1.00
H223   H     0.24474   0.37073   0.96293   0.00000  Uiso   1.00
H224   H     0.32403   0.42739   1.03877   0.00000  Uiso   1.00
H225   H     0.05043   0.36368   0.33468   0.00000  Uiso   1.00
H226   H     0.09035   0.44225   0.26503   0.00000  Uiso   1.00
H227   H     0.03213   0.46885   0.34253   0.00000  Uiso   1.00
H228   H     0.27860   0.44057   0.76839   0.00000  Uiso   1.00
H229   H     0.24349   0.37242   0.83868   0.00000  Uiso   1.00
H230   H     0.20130   0.46396   0.82479   0.00000  Uiso   1.00
H231   H     0.07265   0.95199   0.24198   0.00000  Uiso   1.00
H232   H     0.03720   0.87519   0.15075   0.00000  Uiso   1.00
H233   H     0.14329   0.89801   0.20835   0.00000  Uiso   1.00
H234   H     0.08739   1.07003   0.10900   0.00000  Uiso   1.00
H235   H     0.05122   0.96279   0.06790   0.00000  Uiso   1.00
H236   H     0.10279   1.06088   0.01315   0.00000  Uiso   1.00
H237   H     0.88491   0.83878   0.28659   0.00000  Uiso   1.00
H238   H     0.85420   0.71895   0.30757   0.00000  Uiso   1.00
H239   H     0.83052   0.72925   0.21881   0.00000  Uiso   1.00
H240   H     1.03232   0.69015   0.13419   0.00000  Uiso   1.00
H241   H     0.90644   0.63912   0.14019   0.00000  Uiso   1.00
H242   H     0.96367   0.59904   0.19731   0.00000  Uiso   1.00
H243   H     0.03756   0.88621   0.62699   0.00000  Uiso   1.00
H244   H     0.01063   0.76109   0.58123   0.00000  Uiso   1.00
H245   H    -0.08099   0.77930   0.63034   0.00000  Uiso   1.00
H246   H     0.78778   0.81774   0.55476   0.00000  Uiso   1.00
H247   H     0.83502   0.91833   0.50280   0.00000  Uiso   1.00
H248   H     0.87092   0.93949   0.58962   0.00000  Uiso   1.00
H249   H    -0.00674   0.51245   0.76863   0.00000  Uiso   1.00
H250   H     0.04217   0.58491   0.84894   0.00000  Uiso   1.00
H251   H     0.07612   0.48909   0.82124   0.00000  Uiso   1.00
H252   H     0.16959   0.72891   0.66552   0.00000  Uiso   1.00
H253   H     0.14108   0.77239   0.74366   0.00000  Uiso   1.00
H254   H     0.05400   0.66805   0.68792   0.00000  Uiso   1.00
H255   H     0.33049   0.74958   0.78291   0.00000  Uiso   1.00
H256   H     0.28313   0.66250   0.84686   0.00000  Uiso   1.00
H257   H     0.24217   0.74377   0.85062   0.00000  Uiso   1.00
H258   H    -0.02474   0.67702   0.91894   0.00000  Uiso   1.00
H259   H     0.03866   0.77234   0.99325   0.00000  Uiso   1.00
H260   H     0.09449   0.74149   0.91499   0.00000  Uiso   1.00
H261   H     0.19688   0.88849   0.87255   0.00000  Uiso   1.00
H262   H     0.18000   0.99775   0.91104   0.00000  Uiso   1.00
H263   H     0.16236   0.95403   0.81562   0.00000  Uiso   1.00
H264   H     0.99883   0.70770   0.80000   0.00000  Uiso   1.00
H265   H     1.00616   0.80315   0.75274   0.00000  Uiso   1.00
H266   H     0.90237   0.74129   0.79440   0.00000  Uiso   1.00
H267   H     0.50714   0.24247   0.09346   0.00000  Uiso   1.00
H268   H     0.48703   0.19195  -0.00172   0.00000  Uiso   1.00
H269   H     0.60267   0.27277   0.04302   0.00000  Uiso   1.00
H270   H     0.58820   1.01789  -0.02057   0.00000  Uiso   1.00
H271   H     0.48118   1.01483  -0.04727   0.00000  Uiso   1.00
H272   H     0.48085   0.92694   0.00696   0.00000  Uiso   1.00
H273   H     0.30983   0.08560   0.37231   0.00000  Uiso   1.00
H274   H     0.38175   0.05953   0.30753   0.00000  Uiso   1.00
H275   H     0.25512  -0.01179   0.31037   0.00000  Uiso   1.00
H276   H     0.39968   0.27917   0.22087   0.00000  Uiso   1.00
H277   H     0.43179   0.18447   0.19472   0.00000  Uiso   1.00
H278   H     0.45771   0.23765   0.28677   0.00000  Uiso   1.00
H279   H     0.39807   0.11427   0.55791   0.00000  Uiso   1.00
H280   H     0.32694   0.09451   0.63318   0.00000  Uiso   1.00
H281   H     0.41752   0.21524   0.62243   0.00000  Uiso   1.00
H282   H     0.56251   0.24577   0.40021   0.00000  Uiso   1.00
H283   H     0.45720   0.15098   0.43555   0.00000  Uiso   1.00
H284   H     0.55280   0.22517   0.49979   0.00000  Uiso   1.00
H285   H     0.59779   0.43081   0.35677   0.00000  Uiso   1.00
H286   H     0.59093   0.51492   0.29644   0.00000  Uiso   1.00
H287   H     0.55076   0.39408   0.27151   0.00000  Uiso   1.00
H288   H     0.40740   0.22991   0.83932   0.00000  Uiso   1.00
H289   H     0.46283   0.34862   0.89058   0.00000  Uiso   1.00
H290   H     0.51996   0.27311   0.88365   0.00000  Uiso   1.00
H291   H     0.57872   0.27312   0.67129   0.00000  Uiso   1.00
H292   H     0.49945   0.18316   0.72429   0.00000  Uiso   1.00
H293   H     0.62607   0.25771   0.75829   0.00000  Uiso   1.00
H294   H     0.58213   0.49614   0.16265   0.00000  Uiso   1.00
H295   H     0.49317   0.46524   0.09225   0.00000  Uiso   1.00
H296   H     0.45682   0.40921   0.17052   0.00000  Uiso   1.00
H297   H     0.47833   0.70869   0.11369   0.00000  Uiso   1.00
H298   H     0.38231   0.58768   0.08989   0.00000  Uiso   1.00
H299   H     0.48450   0.61110   0.04949   0.00000  Uiso   1.00
H300   H     0.21224   0.59299   0.23537   0.00000  Uiso   1.00
H301   H     0.13285   0.62609   0.19693   0.00000  Uiso   1.00
H302   H     0.13440   0.61468   0.29230   0.00000  Uiso   1.00
H303   H     0.39898   0.71821   0.26133   0.00000  Uiso   1.00
H304   H     0.34904   0.70000   0.34590   0.00000  Uiso   1.00
H305   H     0.42251   0.82017   0.32117   0.00000  Uiso   1.00
H306   H     0.31006   0.88559   0.20135   0.00000  Uiso   1.00
H307   H     0.22841   0.77554   0.14246   0.00000  Uiso   1.00
H308   H     0.34817   0.80299   0.16109   0.00000  Uiso   1.00
H309   H     0.41517   0.94349   0.10982   0.00000  Uiso   1.00
H310   H     0.37893   1.03543   0.12549   0.00000  Uiso   1.00
H311   H     0.46237   1.03342   0.18689   0.00000  Uiso   1.00
H312   H     0.49304   0.59645   0.39705   0.00000  Uiso   1.00
H313   H     0.49701   0.52898   0.47704   0.00000  Uiso   1.00
H314   H     0.38783   0.51728   0.43421   0.00000  Uiso   1.00
H315   H     0.59623   0.68005   0.58522   0.00000  Uiso   1.00
H316   H     0.58343   0.74971   0.65911   0.00000  Uiso   1.00
H317   H     0.61234   0.79662   0.57777   0.00000  Uiso   1.00
H318   H     0.36767   0.69312   0.46938   0.00000  Uiso   1.00
H319   H     0.48701   0.72594   0.45218   0.00000  Uiso   1.00
H320   H     0.46972   0.81588   0.50493   0.00000  Uiso   1.00
H321   H     0.34922   0.63578   0.67201   0.00000  Uiso   1.00
H322   H     0.32207   0.70908   0.62925   0.00000  Uiso   1.00
H323   H     0.44037   0.76794   0.68618   0.00000  Uiso   1.00
H324   H     0.43945   0.98237   0.64377   0.00000  Uiso   1.00
H325   H     0.44337   0.87540   0.61170   0.00000  Uiso   1.00
H326   H     0.34984   0.87005   0.67091   0.00000  Uiso   1.00
H327   H     0.31487   0.95618   0.44903   0.00000  Uiso   1.00
H328   H     0.37992   0.88867   0.43382   0.00000  Uiso   1.00
H329   H     0.43416   0.99801   0.49087   0.00000  Uiso   1.00
H330   H     0.14923   0.82908   0.55084   0.00000  Uiso   1.00
H331   H     0.21554   0.96045   0.56910   0.00000  Uiso   1.00
H332   H     0.20049   0.88812   0.63922   0.00000  Uiso   1.00
H333   H     0.52782   0.60505   0.92428   0.00000  Uiso   1.00
H334   H     0.54930   0.51574   0.86658   0.00000  Uiso   1.00
H335   H     0.43078   0.50138   0.86409   0.00000  Uiso   1.00
H336   H     0.40463   0.63743   0.78217   0.00000  Uiso   1.00
H337   H     0.50879   0.75606   0.77758   0.00000  Uiso   1.00
H338   H     0.45452   0.70879   0.86103   0.00000  Uiso   1.00
H339   H     0.58250   0.20463   0.23810   0.00000  Uiso   1.00
H340   H     0.62576   0.30785   0.20560   0.00000  Uiso   1.00
H341   H     0.69804   0.29277   0.27497   0.00000  Uiso   1.00
H342   H     0.60087  -0.02099   0.48726   0.00000  Uiso   1.00
H343   H     0.62552   0.09684   0.47289   0.00000  Uiso   1.00
H344   H     0.72338   0.06255   0.49142   0.00000  Uiso   1.00
H345   H     0.86639   0.11143   0.43607   0.00000  Uiso   1.00
H346   H     0.96655   0.10846   0.39938   0.00000  Uiso   1.00
H347   H     0.96551   0.21867   0.39535   0.00000  Uiso   1.00
H348   H     0.53575   0.99383   0.26775   0.00000  Uiso   1.00
H349   H     0.57195   1.10828   0.31883   0.00000  Uiso   1.00
H350   H     0.49612   0.99044   0.35003   0.00000  Uiso   1.00
H351   H     0.63943   0.87699   0.28689   0.00000  Uiso   1.00
H352   H     0.60922   0.85440   0.38166   0.00000  Uiso   1.00
H353   H     0.72916   0.92184   0.35385   0.00000  Uiso   1.00
H354   H     0.84232   0.04541   0.66283   0.00000  Uiso   1.00
H355   H     0.72874   0.01901   0.69318   0.00000  Uiso   1.00
H356   H     0.74677  -0.07375   0.66007   0.00000  Uiso   1.00
H357   H     0.91890   0.92220   0.69418   0.00000  Uiso   1.00
H358   H     0.84637   0.83113   0.73716   0.00000  Uiso   1.00
H359   H     0.95786   0.93103   0.78524   0.00000  Uiso   1.00
H360   H     0.56327   0.01261   0.84324   0.00000  Uiso   1.00
H361   H     0.64842  -0.02024   0.80748   0.00000  Uiso   1.00
H362   H     0.60734   0.05270   0.76194   0.00000  Uiso   1.00
H363   H     0.76127   0.23472   0.75895   0.00000  Uiso   1.00
H364   H     0.83637   0.17872   0.77199   0.00000  Uiso   1.00
H365   H     0.86942   0.29253   0.82512   0.00000  Uiso   1.00
H366   H     0.72266   0.26266   0.96724   0.00000  Uiso   1.00
H367   H     0.60701   0.17218   0.92350   0.00000  Uiso   1.00
H368   H     0.67850   0.27968   0.87882   0.00000  Uiso   1.00
H369   H     0.95475   0.52607   0.04981   0.00000  Uiso   1.00
H370   H     0.84000   0.48692   0.09493   0.00000  Uiso   1.00
H371   H     0.84175   0.44699   0.00435   0.00000  Uiso   1.00
H372   H     1.03436   0.45368   0.13328   0.00000  Uiso   1.00
H373   H     0.97608   0.32762   0.15525   0.00000  Uiso   1.00
H374   H     0.94180   0.41150   0.19274   0.00000  Uiso   1.00
H375   H     0.80363   0.21670   0.46668   0.00000  Uiso   1.00
H376   H     0.70570   0.22641   0.42255   0.00000  Uiso   1.00
H377   H     0.77520   0.30982   0.50626   0.00000  Uiso   1.00
H378   H     0.98209   0.58508   0.33259   0.00000  Uiso   1.00
H379   H     0.95289   0.58028   0.42774   0.00000  Uiso   1.00
H380   H     0.94879   0.67327   0.37553   0.00000  Uiso   1.00
H381   H     0.71301   0.44902   0.24884   0.00000  Uiso   1.00
H382   H     0.83205   0.45107   0.23475   0.00000  Uiso   1.00
H383   H     0.82174   0.56604   0.24176   0.00000  Uiso   1.00
H384   H     0.82065   0.41543   0.84281   0.00000  Uiso   1.00
H385   H     0.89112   0.52160   0.91301   0.00000  Uiso   1.00
H386   H     0.87181   0.53687   0.82581   0.00000  Uiso   1.00
H387   H     0.74979   0.64095   0.83304   0.00000  Uiso   1.00
H388   H     0.81968   0.66489   0.91585   0.00000  Uiso   1.00
H389   H     0.69070   0.62106   0.91680   0.00000  Uiso   1.00
H390   H     0.64374   0.36818   0.96247   0.00000  Uiso   1.00
H391   H     0.60037   0.44690   0.97325   0.00000  Uiso   1.00
H392   H     0.71663   0.48069   1.01015   0.00000  Uiso   1.00
H393   H     0.86528   0.36434   0.66532   0.00000  Uiso   1.00
H394   H     0.75009   0.28970   0.62027   0.00000  Uiso   1.00
H395   H     0.76653   0.36313   0.70491   0.00000  Uiso   1.00
H396   H     0.78080   0.53946   0.71536   0.00000  Uiso   1.00
H397   H     0.86637   0.62872   0.66986   0.00000  Uiso   1.00
H398   H     0.90561   0.55878   0.71693   0.00000  Uiso   1.00
H399   H     0.57923   0.69189   0.28878   0.00000  Uiso   1.00
H400   H     0.59443   0.74983   0.21068   0.00000  Uiso   1.00
H401   H     0.65530   0.67961   0.21905   0.00000  Uiso   1.00
H402   H     0.67094   0.72957   0.10973   0.00000  Uiso   1.00
H403   H     0.70845   0.78193   0.03160   0.00000  Uiso   1.00
H404   H     0.60307   0.76756   0.06239   0.00000  Uiso   1.00
H405   H     0.75194   0.85270   0.24992   0.00000  Uiso   1.00
H406   H     0.81951   0.97967   0.24634   0.00000  Uiso   1.00
H407   H     0.84877   0.89991   0.18787   0.00000  Uiso   1.00
H408   H     0.55688   0.86580   0.18703   0.00000  Uiso   1.00
H409   H     0.58324   0.91380   0.10463   0.00000  Uiso   1.00
H410   H     0.62983   0.98959   0.18672   0.00000  Uiso   1.00
H411   H     0.81157   0.72037   0.03506   0.00000  Uiso   1.00
H412   H     0.87415   0.82952   0.09086   0.00000  Uiso   1.00
H413   H     0.95448   0.79798   0.05187   0.00000  Uiso   1.00
H414   H     0.66728   0.72351   0.45591   0.00000  Uiso   1.00
H415   H     0.64410   0.64313   0.37257   0.00000  Uiso   1.00
H416   H     0.74888   0.75896   0.38774   0.00000  Uiso   1.00
H417   H     0.59131   0.79623   0.95139   0.00000  Uiso   1.00
H418   H     0.59733   0.88508   0.90130   0.00000  Uiso   1.00
H419   H     0.67533   0.91586   0.97862   0.00000  Uiso   1.00
loop_
_geom_bond_atom_site_label_1
_geom_bond_atom_site_label_2
_geom_bond_distance
_geom_bond_site_symmetry_2
_ccdc_geom_bond_type
Si1    C52     1.838   .     S
Si1    O97     1.650   .     S
Si1    C53     1.830   1_545 S
Si1    C77     1.879   1_545 S
Si2    O55     1.618   .     S
Si2    O61     1.623   .     S
Si2    O137    1.596   1_455 S
Si2    O146    1.604   1_455 S
Si3    O56     1.681   .     S
Si3    O101    1.660   .     S
Si3    O83     1.700   1_545 S
Si3    O87     1.628   1_545 S
Si4    C58     1.821   .     S
Si4    O67     1.575   .     S
Si4    C54     1.880   1_455 S
Si4    C143    1.841   1_455 S
Si5    O55     1.596   .     S
Si5    O56     1.660   .     S
Si5    O68     1.662   .     S
Si5    O100    1.618   .     S
Si6    C57     1.832   .     S
Si6    O71     1.587   .     S
Si6    O140    1.635   1_455 S
Si6    O150    1.596   1_455 S
Si7    C59     1.844   .     S
Si7    C60     1.807   .     S
Si7    O72     1.584   .     S
Si7    O103    1.540   .     S
Si8    O61     1.614   .     S
Si8    C62     1.891   .     S
Si8    O63     1.623   .     S
Si8    O104    1.580   .     S
Si9    O63     1.614   .     S
Si9    C64     1.871   .     S
Si9    C65     1.900   1_554 S
Si9    C66     1.803   1_554 S
Si10   O67     1.611   .     S
Si10   O68     1.686   .     S
Si10   O70     1.647   .     S
Si10   O108    1.632   .     S
Si11   O74     1.638   .     S
Si11   O80     1.620   .     S
Si11   O162    1.654   1_455 S
Si11   O172    1.682   1_455 S
Si12   C69     1.885   .     S
Si12   O70     1.596   .     S
Si12   O81     1.622   .     S
Si12   O105    1.641   .     S
Si13   O71     1.589   .     S
Si13   O72     1.560   .     S
Si13   C73     1.884   .     S
Si13   O75     1.600   .     S
Si14   O74     1.642   .     S
Si14   O75     1.627   .     S
Si14   O89     1.596   .     S
Si14   O109    1.635   .     S
Si15   C76     1.820   .     S
Si15   O85     1.625   .     S
Si15   C78     1.876   1_455 S
Si15   C79     1.884   1_455 S
Si16   O80     1.638   .     S
Si16   O81     1.619   .     S
Si16   O86     1.691   .     S
Si16   O130    1.570   .     S
Si17   C82     1.875   .     S
Si17   O83     1.671   .     S
Si17   C84     1.889   1_455 S
Si17   O187    1.659   1_455 S
Si18   O85     1.615   .     S
Si18   O86     1.624   .     S
Si18   O87     1.621   .     S
Si18   O124    1.590   .     S
Si19   C88     1.864   .     S
Si19   O89     1.599   .     S
Si19   C90     1.838   .     S
Si19   C91     1.809   .     S
Si20   C92     1.857   .     S
Si20   C93     1.873   .     S
Si20   C94     1.834   1_455 S
Si20   O181    1.605   1_455 S
Si21   C95     1.942   .     S
Si21   O138    1.581   .     S
Si21   C96     1.880   1_545 S
Si21   C123    1.840   1_545 S
Si22   O97     1.607   .     S
Si22   C98     1.828   .     S
Si22   C99     1.827   .     S
Si22   O100    1.562   .     S
Si23   O101    1.626   .     S
Si23   C102    1.786   .     S
Si23   O103    1.626   .     S
Si23   O106    1.565   .     S
Si24   O104    1.541   .     S
Si24   O105    1.602   .     S
Si24   O110    1.583   .     S
Si24   O117    1.615   .     S
Si25   O106    1.650   .     S
Si25   C107    1.901   .     S
Si25   O111    1.553   .     S
Si25   O163    1.634   .     S
Si26   O108    1.615   .     S
Si26   O109    1.649   .     S
Si26   O115    1.626   .     S
Si26   O125    1.615   .     S
Si27   O110    1.578   .     S
Si27   O111    1.589   .     S
Si27   C112    1.872   .     S
Si27   C126    1.892   .     S
Si28   C113    1.879   .     S
Si28   C114    1.894   .     S
Si28   O116    1.637   .     S
Si28   O168    1.569   .     S
Si29   O115    1.693   .     S
Si29   O116    1.587   .     S
Si29   O135    1.580   .     S
Si29   O164    1.635   .     S
Si30   O117    1.587   .     S
Si30   C118    1.894   .     S
Si30   C119    1.861   .     S
Si30   C176    1.834   .     S
Si31   C120    1.810   .     S
Si31   C121    1.845   .     S
Si31   C122    1.835   .     S
Si31   O124    1.564   .     S
Si32   O125    1.619   .     S
Si32   C127    1.870   .     S
Si32   C128    1.817   .     S
Si32   C129    1.770   .     S
Si33   O130    1.604   .     S
Si33   C131    1.807   .     S
Si33   C132    1.970   .     S
Si33   C133    1.832   .     S
Si34   C134    1.862   .     S
Si34   O135    1.653   .     S
Si34   C136    1.786   .     S
Si34   O188    1.634   .     S
Si35   O137    1.651   .     S
Si35   O141    1.608   .     S
Si35   O179    1.570   1_545 S
Si35   O183    1.630   1_545 S
Si36   O138    1.559   .     S
Si36   C139    1.828   .     S
Si36   O147    1.588   .     S
Si36   O156    1.624   .     S
Si37   O141    1.597   .     S
Si37   O157    1.594   .     S
Si37   O140    1.580   1_554 S
Si37   O153    1.620   1_554 S
Si38   C142    1.912   .     S
Si38   O148    1.627   .     S
Si38   C144    1.925   1_545 S
Si38   C145    1.837   1_545 S
Si39   O146    1.639   .     S
Si39   O147    1.636   .     S
Si39   O148    1.640   .     S
Si39   O161    1.597   .     S
Si40   C149    1.951   .     S
Si40   O150    1.599   .     S
Si40   C151    1.799   1_545 S
Si40   O190    1.588   1_545 S
Si41   C152    1.924   .     S
Si41   O153    1.621   .     S
Si41   C154    1.792   .     S
Si41   C155    1.888   .     S
Si42   O156    1.599   .     S
Si42   O157    1.635   .     S
Si42   C158    1.811   .     S
Si42   C159    1.799   .     S
Si43   C160    1.811   .     S
Si43   O161    1.596   .     S
Si43   O162    1.628   .     S
Si43   O167    1.593   .     S
Si44   O163    1.685   .     S
Si44   O164    1.644   .     S
Si44   O173    1.628   .     S
Si44   O184    1.565   .     S
Si45   C165    1.749   .     S
Si45   C166    1.905   .     S
Si45   O167    1.629   .     S
Si45   O185    1.599   .     S
Si46   O168    1.607   .     S
Si46   C169    1.885   .     S
Si46   C170    1.840   .     S
Si46   C171    1.934   .     S
Si47   O172    1.598   .     S
Si47   O173    1.664   .     S
Si47   C174    1.845   .     S
Si47   C175    1.881   .     S
Si48   C177    1.857   .     S
Si48   C178    1.834   .     S
Si48   O179    1.554   .     S
Si48   C180    1.863   .     S
Si49   C182    1.951   .     S
Si49   O183    1.627   .     S
Si49   O181    1.631   1_554 S
Si49   O189    1.633   1_554 S
Si50   O184    1.641   .     S
Si50   O185    1.585   .     S
Si50   C186    1.841   .     S
Si50   O187    1.657   .     S
Si51   O188    1.595   .     S
Si51   O189    1.581   .     S
Si51   O190    1.611   .     S
Si51   C191    1.852   .     S
C52    H192    1.121   .     S
C52    H193    1.071   .     S
C52    H194    1.050   .     S
C53    H195    1.123   .     S
C53    H196    1.117   .     S
C53    H197    1.031   .     S
C53    Si1     1.830   1_565 S
C54    H198    1.069   .     S
C54    H199    1.060   .     S
C54    H200    1.101   .     S
C54    Si4     1.880   1_655 S
C57    H201    1.094   .     S
C57    H202    1.110   .     S
C57    H203    1.110   .     S
C58    H204    1.125   .     S
C58    H205    1.103   .     S
C58    H206    1.116   .     S
C59    H207    1.114   .     S
C59    H208    1.126   .     S
C59    H209    1.179   .     S
C60    H210    1.058   .     S
C60    H211    1.150   .     S
C60    H212    1.065   .     S
C62    H213    1.039   .     S
C62    H214    1.115   .     S
C62    H215    1.076   .     S
C64    H216    1.126   .     S
C64    H217    1.104   .     S
C64    H218    1.105   .     S
C65    H219    1.135   .     S
C65    H220    1.092   .     S
C65    H221    1.124   .     S
C65    Si9     1.900   1_556 S
C66    H222    1.102   .     S
C66    H223    1.091   .     S
C66    H224    1.119   .     S
C66    Si9     1.803   1_556 S
C69    H225    1.117   .     S
C69    H226    1.130   .     S
C69    H227    1.123   .     S
C73    H228    1.088   .     S
C73    H229    1.059   .     S
C73    H230    1.123   .     S
C76    H231    1.143   .     S
C76    H232    1.116   .     S
C76    H233    1.126   .     S
C77    H234    1.071   .     S
C77    H235    1.060   .     S
C77    H236    1.115   .     S
C77    Si1     1.879   1_565 S
C78    H237    1.147   .     S
C78    H238    1.077   .     S
C78    H239    1.130   .     S
C78    Si15    1.876   1_655 S
C79    H240    1.121   .     S
C79    H241    1.075   .     S
C79    H242    1.152   .     S
C79    Si15    1.884   1_655 S
C82    H243    1.135   .     S
C82    H244    1.191   .     S
C82    H245    1.114   .     S
O83    Si3     1.700   1_565 S
C84    H246    1.115   .     S
C84    H247    1.049   .     S
C84    H248    1.073   .     S
C84    Si17    1.889   1_655 S
O87    Si3     1.628   1_565 S
C88    H249    1.079   .     S
C88    H250    1.116   .     S
C88    H251    1.147   .     S
C90    H252    1.086   .     S
C90    H253    1.069   .     S
C90    H254    1.091   .     S
C91    H255    1.141   .     S
C91    H256    1.094   .     S
C91    H257    1.108   .     S
C92    H258    1.126   .     S
C92    H259    1.111   .     S
C92    H260    1.117   .     S
C93    H261    1.167   .     S
C93    H262    1.112   .     S
C93    H263    1.089   .     S
C94    H264    1.102   .     S
C94    H265    1.050   .     S
C94    H266    1.139   .     S
C94    Si20    1.834   1_655 S
C95    H267    1.131   .     S
C95    H268    1.122   .     S
C95    H269    1.122   .     S
C96    H270    1.090   .     S
C96    H271    1.071   .     S
C96    H272    1.121   .     S
C96    Si21    1.880   1_565 S
C98    H273    1.125   .     S
C98    H274    1.107   .     S
C98    H275    1.064   .     S
C99    H276    1.080   .     S
C99    H277    1.119   .     S
C99    H278    1.122   .     S
C102   H279    1.072   .     S
C102   H280    1.089   .     S
C102   H281    1.106   .     S
C107   H282    1.135   .     S
C107   H283    1.063   .     S
C107   H284    1.176   .     S
C112   H285    1.079   .     S
C112   H286    1.107   .     S
C112   H287    1.049   .     S
C113   H288    1.119   .     S
C113   H289    1.065   .     S
C113   H290    1.141   .     S
C114   H291    1.113   .     S
C114   H292    1.120   .     S
C114   H293    1.151   .     S
C118   H294    1.144   .     S
C118   H295    1.089   .     S
C118   H296    1.096   .     S
C119   H297    1.129   .     S
C119   H298    1.074   .     S
C119   H299    1.129   .     S
C120   H300    1.083   .     S
C120   H301    1.078   .     S
C120   H302    1.096   .     S
C121   H303    1.115   .     S
C121   H304    1.114   .     S
C121   H305    1.107   .     S
C122   H306    1.092   .     S
C122   H307    1.123   .     S
C122   H308    1.072   .     S
C123   H309    1.108   .     S
C123   H310    1.130   .     S
C123   H311    1.083   .     S
C123   Si21    1.840   1_565 S
C126   H312    1.078   .     S
C126   H313    1.141   .     S
C126   H314    1.143   .     S
C127   H315    1.107   .     S
C127   H316    1.058   .     S
C127   H317    1.132   .     S
C128   H318    1.116   .     S
C128   H319    1.137   .     S
C128   H320    1.117   .     S
C129   H321    1.111   .     S
C129   H322    1.094   .     S
C129   H323    1.142   .     S
C131   H324    1.138   .     S
C131   H325    1.123   .     S
C131   H326    1.134   .     S
C132   H327    1.068   .     S
C132   H328    1.060   .     S
C132   H329    1.105   .     S
C133   H330    1.122   .     S
C133   H331    1.085   .     S
C133   H332    1.133   .     S
C134   H333    1.132   .     S
C134   H334    1.086   .     S
C134   H335    1.123   .     S
C136   H336    1.036   .     S
C136   H337    1.114   .     S
C136   H338    1.089   .     S
O137   Si2     1.596   1_655 S
C139   H339    1.105   .     S
C139   H340    1.128   .     S
C139   H341    1.050   .     S
O140   Si6     1.635   1_655 S
O140   Si37    1.580   1_556 S
C142   H342    1.121   .     S
C142   H343    1.109   .     S
C142   H344    1.152   .     S
C143   H345    1.110   .     S
C143   H346    1.071   .     S
C143   H347    1.134   .     S
C143   Si4     1.841   1_655 S
C144   H348    1.096   .     S
C144   H349    1.101   .     S
C144   H350    1.031   .     S
C144   Si38    1.925   1_565 S
C145   H351    1.088   .     S
C145   H352    1.145   .     S
C145   H353    1.084   .     S
C145   Si38    1.837   1_565 S
O146   Si2     1.604   1_655 S
C149   H354    1.059   .     S
C149   H355    1.145   .     S
C149   H356    1.041   .     S
O150   Si6     1.596   1_655 S
C151   H357    1.062   .     S
C151   H358    1.084   .     S
C151   H359    1.082   .     S
C151   Si40    1.799   1_565 S
C152   H360    1.098   .     S
C152   H361    1.102   .     S
C152   H362    1.119   .     S
O153   Si37    1.620   1_556 S
C154   H363    1.105   .     S
C154   H364    1.090   .     S
C154   H365    1.162   .     S
C155   H366    1.132   .     S
C155   H367    1.145   .     S
C155   H368    1.111   .     S
C158   H369    1.085   .     S
C158   H370    1.127   .     S
C158   H371    1.104   .     S
C159   H372    1.088   .     S
C159   H373    1.097   .     S
C159   H374    1.031   .     S
C160   H375    1.117   .     S
C160   H376    1.128   .     S
C160   H377    1.103   .     S
O162   Si11    1.654   1_655 S
C165   H378    1.101   .     S
C165   H379    1.144   .     S
C165   H380    1.109   .     S
C166   H381    1.128   .     S
C166   H382    1.116   .     S
C166   H383    1.145   .     S
C169   H384    1.130   .     S
C169   H385    1.101   .     S
C169   H386    1.096   .     S
C170   H387    1.091   .     S
C170   H388    1.142   .     S
C170   H389    1.105   .     S
C171   H390    1.106   .     S
C171   H391    1.095   .     S
C171   H392    1.022   .     S
O172   Si11    1.682   1_655 S
C174   H393    1.073   .     S
C174   H394    1.138   .     S
C174   H395    1.079   .     S
C175   H396    1.145   .     S
C175   H397    1.048   .     S
C175   H398    1.091   .     S
C176   H399    1.140   .     S
C176   H400    1.074   .     S
C176   H401    1.132   .     S
C177   H402    1.062   .     S
C177   H403    1.106   .     S
C177   H404    1.102   .     S
C178   H405    1.140   .     S
C178   H406    1.095   .     S
C178   H407    1.115   .     S
O179   Si35    1.570   1_565 S
C180   H408    1.063   .     S
C180   H409    1.101   .     S
C180   H410    1.080   .     S
O181   Si20    1.605   1_655 S
O181   Si49    1.631   1_556 S
C182   H411    1.137   .     S
C182   H412    1.082   .     S
C182   H413    1.143   .     S
O183   Si35    1.630   1_565 S
C186   H414    1.102   .     S
C186   H415    1.082   .     S
C186   H416    1.112   .     S
O187   Si17    1.659   1_655 S
O189   Si49    1.633   1_556 S
O190   Si40    1.588   1_565 S
C191   H417    1.040   .     S
C191   H418    1.100   .     S
C191   H419    1.101   .     S
