data_333-15-11-10-15-30-19
_audit_creation_date              2025-03-07
_audit_creation_method            'Materials Studio'
_symmetry_space_group_name_H-M    'P1'
_symmetry_Int_Tables_number       1
_symmetry_cell_setting            triclinic
loop_
_symmetry_equiv_pos_as_xyz
  x,y,z
_cell_length_a                    15.3112
_cell_length_b                    16.0536
_cell_length_c                    20.3705
_cell_angle_alpha                 88.1490
_cell_angle_beta                  90.3990
_cell_angle_gamma                 115.3373
loop_
_atom_site_label
_atom_site_type_symbol
_atom_site_fract_x
_atom_site_fract_y
_atom_site_fract_z
_atom_site_U_iso_or_equiv
_atom_site_adp_type
_atom_site_occupancy
Si1    Si   -0.02016   0.14666   0.30184   0.00000  Uiso   1.00
Si2    Si    0.11589  -0.04610   0.40851   0.00000  Uiso   1.00
Si3    Si   -0.01119   0.14145   0.56085   0.00000  Uiso   1.00
Si4    Si    0.16962   0.15460   0.37347   0.00000  Uiso   1.00
Si5    Si   -0.08211   0.00121   0.85904   0.00000  Uiso   1.00
Si6    Si    0.11269   0.14769   0.67456   0.00000  Uiso   1.00
Si7    Si    0.06137   0.28726   0.18969   0.00000  Uiso   1.00
Si8    Si    0.05955   0.58822   0.32267   0.00000  Uiso   1.00
Si9    Si    0.12965   0.27948   0.46338   0.00000  Uiso   1.00
Si10   Si   -0.01379   0.46891   0.56883   0.00000  Uiso   1.00
Si11   Si    0.16328   0.52105   0.64732   0.00000  Uiso   1.00
Si12   Si   -0.04034   0.73688   0.10035   0.00000  Uiso   1.00
Si13   Si    0.08200   0.56139  -0.07961   0.00000  Uiso   1.00
Si14   Si    0.01195   0.81948   0.52868   0.00000  Uiso   1.00
Si15   Si    0.00364   0.67813   0.84640   0.00000  Uiso   1.00
Si16   Si    0.20683   0.88827   0.60044   0.00000  Uiso   1.00
Si17   Si    0.36532   0.22821   0.29854   0.00000  Uiso   1.00
Si18   Si    0.52410   0.03765   0.44632   0.00000  Uiso   1.00
Si19   Si    0.53910   0.21813   0.38061   0.00000  Uiso   1.00
Si20   Si    0.50382   0.17218   0.62607   0.00000  Uiso   1.00
Si21   Si    0.53750   0.38809   0.45005   0.00000  Uiso   1.00
Si22   Si    0.58677   0.54798   0.35253   0.00000  Uiso   1.00
Si23   Si    0.47013   0.43628   0.79953   0.00000  Uiso   1.00
Si24   Si    0.39294   0.61017   0.09278   0.00000  Uiso   1.00
Si25   Si    0.38367   0.94966   0.20725   0.00000  Uiso   1.00
Si26   Si    0.50089   0.80298   0.02816   0.00000  Uiso   1.00
Si27   Si    0.59070   0.69099   0.44997   0.00000  Uiso   1.00
Si28   Si    0.37303   0.86302   0.52733   0.00000  Uiso   1.00
Si29   Si    0.51253   0.93621   0.31988   0.00000  Uiso   1.00
Si30   Si    0.44563   0.75644   0.75576   0.00000  Uiso   1.00
Si31   Si    0.51620   0.83341   0.61853   0.00000  Uiso   1.00
Si32   Si    0.88330  -0.00198   0.20485   0.00000  Uiso   1.00
Si33   Si    0.72077   0.22079   0.31083   0.00000  Uiso   1.00
Si34   Si    0.82370  -0.00969   0.49126   0.00000  Uiso   1.00
Si35   Si    0.67187   0.15935   0.55444   0.00000  Uiso   1.00
Si36   Si    0.83784   0.15773   0.40623   0.00000  Uiso   1.00
Si37   Si    0.84318  -0.01681   0.71714   0.00000  Uiso   1.00
Si38   Si    0.71750   0.21348   0.84428   0.00000  Uiso   1.00
Si39   Si    0.83434   0.15846   0.64209   0.00000  Uiso   1.00
Si40   Si    0.72239   0.50093   0.27698   0.00000  Uiso   1.00
Si41   Si    0.83526   0.31705   0.48121   0.00000  Uiso   1.00
Si42   Si    0.69217   0.52598   0.54339   0.00000  Uiso   1.00
Si43   Si    0.86244   0.48306   0.38590   0.00000  Uiso   1.00
Si44   Si    0.81847   0.32521   0.72472   0.00000  Uiso   1.00
Si45   Si    0.68397   0.54901   0.82861   0.00000  Uiso   1.00
Si46   Si    0.82472   0.49168   0.64304   0.00000  Uiso   1.00
Si47   Si    0.81040   0.54227   0.13839   0.00000  Uiso   1.00
Si48   Si    0.86299   0.65346   0.45685   0.00000  Uiso   1.00
Si49   Si    0.69035   0.80988   0.56272   0.00000  Uiso   1.00
Si50   Si    0.86052   0.66130   0.73439   0.00000  Uiso   1.00
Si51   Si    0.87264   0.83423   0.63903   0.00000  Uiso   1.00
C52    C     0.23995  -0.04147   0.41218   0.00000  Uiso   1.00
C53    C     0.06749   0.92568   0.32606   0.00000  Uiso   1.00
O54    O     0.08453   0.15048   0.32099   0.00000  Uiso   1.00
O55    O     0.13084   0.06010   0.41510   0.00000  Uiso   1.00
C56    C    -0.01546  -0.06694   0.88492   0.00000  Uiso   1.00
C57    C    -0.01358   0.11370   0.90185   0.00000  Uiso   1.00
C58    C     0.80171  -0.05806   0.89920   0.00000  Uiso   1.00
O59    O     0.05973   0.12382   0.60799   0.00000  Uiso   1.00
C60    C     0.11337   0.04562   0.72933   0.00000  Uiso   1.00
C61    C     0.07310   0.21970   0.72611   0.00000  Uiso   1.00
C62    C     0.24317   0.21347   0.64904   0.00000  Uiso   1.00
O63    O    -0.00083   0.22852   0.25013   0.00000  Uiso   1.00
C64    C    -0.00609   0.28731   0.11628   0.00000  Uiso   1.00
C65    C     0.11400   0.40571   0.21410   0.00000  Uiso   1.00
C66    C     0.16248   0.25920   0.17022   0.00000  Uiso   1.00
C67    C     0.06188   0.69787   0.34905   0.00000  Uiso   1.00
C68    C     0.03717   0.59992   0.23525   0.00000  Uiso   1.00
C69    C     1.17985   0.58769   0.34303   0.00000  Uiso   1.00
O70    O     0.04148   0.20423   0.49890   0.00000  Uiso   1.00
O71    O     0.18821   0.23735   0.42057   0.00000  Uiso   1.00
C72    C     0.09934   0.36039   0.41878   0.00000  Uiso   1.00
C73    C     0.21052   0.35726   0.52726   0.00000  Uiso   1.00
C74    C     0.04549   0.55473   0.50353   0.00000  Uiso   1.00
O75    O     0.06856   0.45972   0.60977   0.00000  Uiso   1.00
C76    C     0.18334   0.44301   0.71376   0.00000  Uiso   1.00
C77    C     0.15122   0.62383   0.67912   0.00000  Uiso   1.00
C78    C     0.27806   0.56589   0.59450   0.00000  Uiso   1.00
C79    C    -0.00727   0.78533   0.18524   0.00000  Uiso   1.00
C80    C     0.08270   0.76980   0.06041   0.00000  Uiso   1.00
C81    C     0.88826   0.78403   0.05577   0.00000  Uiso   1.00
C82    C     0.10899   0.46697  -0.11054   0.00000  Uiso   1.00
C83    C     0.00399   0.51207  -0.00619   0.00000  Uiso   1.00
C84    C     0.19863   0.64983   0.94712   0.00000  Uiso   1.00
O85    O     0.04578   0.89152   0.46608   0.00000  Uiso   1.00
O86    O     0.03025   0.59719   0.86604   0.00000  Uiso   1.00
C87    C     0.11152   0.78832   0.84879   0.00000  Uiso   1.00
C88    C     0.92322   0.68612   0.90981   0.00000  Uiso   1.00
O89    O     0.11180   0.82080   0.56223   0.00000  Uiso   1.00
C90    C     0.18322   0.86010   0.69322   0.00000  Uiso   1.00
C91    C     0.21099   1.00648   0.58976   0.00000  Uiso   1.00
C92    C     0.34511   0.18905   0.21162   0.00000  Uiso   1.00
C93    C     0.36914   0.34605   0.28767   0.00000  Uiso   1.00
O94    O     0.27206   0.16868   0.34279   0.00000  Uiso   1.00
O95    O     0.45894   0.21765   0.32743   0.00000  Uiso   1.00
O96    O     0.49961   0.11907   0.41706   0.00000  Uiso   1.00
C97    C     0.42698   0.14683   0.55446   0.00000  Uiso   1.00
C98    C     0.45794   0.09821   0.70045   0.00000  Uiso   1.00
C99    C     0.43849   0.37007   0.50339   0.00000  Uiso   1.00
O100   O     0.54634   0.29298   0.43290   0.00000  Uiso   1.00
C101   C     0.50357   0.58011   0.29983   0.00000  Uiso   1.00
O102   O     0.53721   0.44749   0.38303   0.00000  Uiso   1.00
C103   C     0.39919   0.46603   0.86474   0.00000  Uiso   1.00
C104   C     0.54589   0.29572   0.64634   0.00000  Uiso   1.00
C105   C     0.45368   0.31259   0.81810   0.00000  Uiso   1.00
C106   C     0.40863   0.44515   0.72465   0.00000  Uiso   1.00
C107   C     0.30418   0.51419   0.04919   0.00000  Uiso   1.00
C108   C     0.50784   0.59473   0.10079   0.00000  Uiso   1.00
C109   C     0.34952   0.61992   0.17923   0.00000  Uiso   1.00
C110   C     0.35088   0.82771   0.18041   0.00000  Uiso   1.00
C111   C     0.43909   1.03821   0.13809   0.00000  Uiso   1.00
C112   C     0.27495   0.95038   0.23793   0.00000  Uiso   1.00
O113   O     0.41966   0.70618   0.05694   0.00000  Uiso   1.00
C114   C     0.59029   0.86344   0.09338   0.00000  Uiso   1.00
C115   C     0.43587   0.87004   0.99690   0.00000  Uiso   1.00
C116   C     0.56718   0.77661   0.95695   0.00000  Uiso   1.00
C117   C     0.46072   0.64195   0.47597   0.00000  Uiso   1.00
O118   O     0.61912   0.62005   0.41271   0.00000  Uiso   1.00
C119   C     0.28196   0.76330   0.48563   0.00000  Uiso   1.00
O120   O     0.42572   0.95144   0.47914   0.00000  Uiso   1.00
O121   O     0.30852   0.88489   0.58039   0.00000  Uiso   1.00
O122   O     0.45953   0.97719   0.26847   0.00000  Uiso   1.00
C123   C     0.61532   0.78374   0.39039   0.00000  Uiso   1.00
C124   C     0.41852   0.82616   0.35361   0.00000  Uiso   1.00
O125   O     0.55294   0.99966   0.38314   0.00000  Uiso   1.00
C126   C     0.61254   0.92278   0.27801   0.00000  Uiso   1.00
C127   C     0.33006   0.68240   0.78630   0.00000  Uiso   1.00
C128   C     0.54034   0.71195   0.77554   0.00000  Uiso   1.00
C129   C     0.47031   0.86452   0.80206   0.00000  Uiso   1.00
O130   O     0.44896   0.82814   0.55740   0.00000  Uiso   1.00
O131   O     0.44636   0.77793   0.67804   0.00000  Uiso   1.00
C132   C     0.57815   0.95205   0.64051   0.00000  Uiso   1.00
C133   C     0.81752   0.04888   0.15529   0.00000  Uiso   1.00
O134   O     0.91226   0.05438   0.26935   0.00000  Uiso   1.00
C135   C     0.80798   0.87091   0.22664   0.00000  Uiso   1.00
C136   C     0.99333   1.01155   0.16063   0.00000  Uiso   1.00
C137   C     0.66081   0.16037   0.23473   0.00000  Uiso   1.00
C138   C     0.83569   0.31285   0.28011   0.00000  Uiso   1.00
O139   O     0.64599   0.25242   0.34861   0.00000  Uiso   1.00
O140   O     0.91729   0.04549   0.53506   0.00000  Uiso   1.00
C141   C     0.86508   0.93877   0.42381   0.00000  Uiso   1.00
O142   O     0.61294   0.08549   0.49960   0.00000  Uiso   1.00
O143   O     0.60434   0.17033   0.60803   0.00000  Uiso   1.00
O144   O     0.92874   0.15965   0.36825   0.00000  Uiso   1.00
O145   O     0.75104   0.15210   0.35790   0.00000  Uiso   1.00
O146   O     0.79522   0.06562   0.45552   0.00000  Uiso   1.00
O147   O     0.91277   0.01714   0.78081   0.00000  Uiso   1.00
C148   C     0.72998   0.88661   0.74928   0.00000  Uiso   1.00
C149   C     0.69600   0.09575   0.82085   0.00000  Uiso   1.00
C150   C     0.81120   0.25721   0.90276   0.00000  Uiso   1.00
C151   C     0.60288   0.19533   0.88191   0.00000  Uiso   1.00
O152   O     0.93303   0.18640   0.60267   0.00000  Uiso   1.00
O153   O     0.74889   0.12786   0.58778   0.00000  Uiso   1.00
O154   O     0.83050   0.07143   0.68892   0.00000  Uiso   1.00
C155   C     0.62949   0.38724   0.24808   0.00000  Uiso   1.00
O156   O     0.67296   0.55671   0.30903   0.00000  Uiso   1.00
O157   O     0.73389   0.25830   0.51922   0.00000  Uiso   1.00
O158   O     0.86834   0.24900   0.44566   0.00000  Uiso   1.00
O159   O     0.91691   0.37303   0.53543   0.00000  Uiso   1.00
O160   O     0.63343   0.44951   0.49077   0.00000  Uiso   1.00
C161   C     0.61231   0.55350   0.60068   0.00000  Uiso   1.00
O162   O     0.96678   0.50434   0.35484   0.00000  Uiso   1.00
O163   O     0.78586   0.47782   0.33211   0.00000  Uiso   1.00
O164   O     0.82048   0.38875   0.42853   0.00000  Uiso   1.00
O165   O     0.74166   0.27761   0.78105   0.00000  Uiso   1.00
O166   O     0.83250   0.24726   0.68069   0.00000  Uiso   1.00
C167   C     0.93341   0.40047   0.76426   0.00000  Uiso   1.00
O168   O     0.58302   0.50431   0.79010   0.00000  Uiso   1.00
C169   C     0.72172   0.46075   0.85673   0.00000  Uiso   1.00
C170   C     0.66686   0.60950   0.90066   0.00000  Uiso   1.00
O171   O     0.92628   0.50744   0.61265   0.00000  Uiso   1.00
O172   O     0.75187   0.48287   0.58401   0.00000  Uiso   1.00
O173   O     0.78738   0.39458   0.68187   0.00000  Uiso   1.00
O174   O     0.78402   0.55451   0.21383   0.00000  Uiso   1.00
C175   C     0.84031   0.43930   0.13250   0.00000  Uiso   1.00
C176   C     0.71478   0.52342   0.07880   0.00000  Uiso   1.00
O177   O     0.90785   0.62886   0.11339   0.00000  Uiso   1.00
O178   O     0.76953   0.61812   0.50408   0.00000  Uiso   1.00
O179   O     0.87958   0.56635   0.43557   0.00000  Uiso   1.00
C180   C     0.84717   0.72254   0.38718   0.00000  Uiso   1.00
O181   O     0.94716   0.71816   0.50276   0.00000  Uiso   1.00
O182   O     0.65920   0.73153   0.51279   0.00000  Uiso   1.00
O183   O     0.73772   0.91166   0.53164   0.00000  Uiso   1.00
O184   O     0.59224   0.79635   0.59978   0.00000  Uiso   1.00
O185   O     0.76801   0.62775   0.78492   0.00000  Uiso   1.00
O186   O     0.83255   0.57646   0.68433   0.00000  Uiso   1.00
O187   O     0.95065   0.66561   0.77756   0.00000  Uiso   1.00
O188   O     0.95016   0.85421   0.58006   0.00000  Uiso   1.00
O189   O     0.76803   0.79021   0.60618   0.00000  Uiso   1.00
O190   O     0.88161   0.76213   0.69592   0.00000  Uiso   1.00
O191   O     0.88664   0.93175   0.66731   0.00000  Uiso   1.00
H192   H     0.26353  -0.05527   0.45883   0.00000  Uiso   1.00
H193   H     0.29479   0.03499   0.39455   0.00000  Uiso   1.00
H194   H     0.23856  -0.08433   0.37431   0.00000  Uiso   1.00
H195   H     0.05317   0.85482   0.31222   0.00000  Uiso   1.00
H196   H     0.12572   0.97211   0.29241   0.00000  Uiso   1.00
H197   H     0.00248   0.92979   0.31988   0.00000  Uiso   1.00
H198   H    -0.01134  -0.11480   0.84946   0.00000  Uiso   1.00
H199   H    -0.05178  -0.11090   0.92791   0.00000  Uiso   1.00
H200   H     0.06207  -0.01927   0.89553   0.00000  Uiso   1.00
H201   H     0.05635   0.11687   0.92165   0.00000  Uiso   1.00
H202   H    -0.05842   0.11228   0.94377   0.00000  Uiso   1.00
H203   H     0.00706   0.17497   0.86526   0.00000  Uiso   1.00
H204   H     0.81952  -0.05854   0.95254   0.00000  Uiso   1.00
H205   H     0.76618  -0.13031   0.88641   0.00000  Uiso   1.00
H206   H     0.75205  -0.02505   0.88726   0.00000  Uiso   1.00
H207   H     0.05327  -0.01682   0.71256   0.00000  Uiso   1.00
H208   H     0.10141   0.05117   0.78245   0.00000  Uiso   1.00
H209   H     0.18058   0.04148   0.72226   0.00000  Uiso   1.00
H210   H     0.05416   0.26640   0.69267   0.00000  Uiso   1.00
H211   H     0.12927   0.25441   0.76547   0.00000  Uiso   1.00
H212   H     0.00529   0.18247   0.75262   0.00000  Uiso   1.00
H213   H     0.29349   0.20062   0.68124   0.00000  Uiso   1.00
H214   H     0.26119   0.28585   0.65528   0.00000  Uiso   1.00
H215   H     0.24903   0.19733   0.59761   0.00000  Uiso   1.00
H216   H    -0.04334   0.21706   0.09341   0.00000  Uiso   1.00
H217   H     0.04484   0.33776   0.08161   0.00000  Uiso   1.00
H218   H    -0.06155   0.31297   0.12964   0.00000  Uiso   1.00
H219   H     0.16107   0.40446   0.25559   0.00000  Uiso   1.00
H220   H     0.04938   0.41645   0.22988   0.00000  Uiso   1.00
H221   H     0.15659   0.45931   0.17523   0.00000  Uiso   1.00
H222   H     0.15063   0.21416   0.12891   0.00000  Uiso   1.00
H223   H     0.17808   0.22834   0.21279   0.00000  Uiso   1.00
H224   H     0.23419   0.32215   0.16003   0.00000  Uiso   1.00
H225   H    -0.00037   0.71076   0.32989   0.00000  Uiso   1.00
H226   H     0.12241   0.75224   0.32644   0.00000  Uiso   1.00
H227   H     0.06195   0.70348   0.40394   0.00000  Uiso   1.00
H228   H     0.09132   0.66734   0.21454   0.00000  Uiso   1.00
H229   H    -0.03588   0.59364   0.23324   0.00000  Uiso   1.00
H230   H     0.03774   0.53924   0.21107   0.00000  Uiso   1.00
H231   H     1.17224   0.52358   0.31790   0.00000  Uiso   1.00
H232   H     1.19501   0.58404   0.39582   0.00000  Uiso   1.00
H233   H     1.23764   0.65208   0.31647   0.00000  Uiso   1.00
H234   H     0.04552   0.37317   0.44703   0.00000  Uiso   1.00
H235   H     0.07598   0.34734   0.36848   0.00000  Uiso   1.00
H236   H     0.16648   0.42973   0.41373   0.00000  Uiso   1.00
H237   H     0.25757   0.32928   0.54643   0.00000  Uiso   1.00
H238   H     0.17660   0.37659   0.56648   0.00000  Uiso   1.00
H239   H     0.25958   0.42180   0.50370   0.00000  Uiso   1.00
H240   H     0.02140   0.60808   0.49803   0.00000  Uiso   1.00
H241   H     0.04244   0.52553   0.45240   0.00000  Uiso   1.00
H242   H     0.11963   0.59044   0.51282   0.00000  Uiso   1.00
H243   H     0.12463   0.41153   0.74925   0.00000  Uiso   1.00
H244   H     0.25019   0.48566   0.73560   0.00000  Uiso   1.00
H245   H     0.19502   0.38808   0.68982   0.00000  Uiso   1.00
H246   H     0.21784   0.68760   0.66658   0.00000  Uiso   1.00
H247   H     0.14859   0.61583   0.73082   0.00000  Uiso   1.00
H248   H     0.08386   0.62921   0.65897   0.00000  Uiso   1.00
H249   H     0.25898   0.56835   0.54089   0.00000  Uiso   1.00
H250   H     0.32143   0.52591   0.59658   0.00000  Uiso   1.00
H251   H     0.32108   0.63723   0.60872   0.00000  Uiso   1.00
H252   H    -0.05723   0.74306   0.22114   0.00000  Uiso   1.00
H253   H    -0.00925   0.85464   0.18636   0.00000  Uiso   1.00
H254   H     0.07052   0.79938   0.19351   0.00000  Uiso   1.00
H255   H     0.08447   0.79492   0.00919   0.00000  Uiso   1.00
H256   H     0.09766   0.71206   0.06738   0.00000  Uiso   1.00
H257   H     0.14686   0.82658   0.08495   0.00000  Uiso   1.00
H258   H     0.84009   0.79052   0.09070   0.00000  Uiso   1.00
H259   H     0.84586   0.73742   0.01339   0.00000  Uiso   1.00
H260   H     0.94308   0.85552   0.03442   0.00000  Uiso   1.00
H261   H     0.15280   0.49120  -0.15857   0.00000  Uiso   1.00
H262   H     0.04427   0.40264  -0.11885   0.00000  Uiso   1.00
H263   H     0.15022   0.45775  -0.06730   0.00000  Uiso   1.00
H264   H    -0.07185   0.47121  -0.01789   0.00000  Uiso   1.00
H265   H     0.00799   0.56835   0.02718   0.00000  Uiso   1.00
H266   H     0.02205   0.45934   0.02023   0.00000  Uiso   1.00
H267   H     0.23291   0.70801   0.91157   0.00000  Uiso   1.00
H268   H     0.25018   0.61306   0.95083   0.00000  Uiso   1.00
H269   H     0.20419   0.67522   0.99547   0.00000  Uiso   1.00
H270   H     0.10222   0.85015   0.82538   0.00000  Uiso   1.00
H271   H     0.16489   0.77879   0.81748   0.00000  Uiso   1.00
H272   H     0.13737   0.80182   0.90283   0.00000  Uiso   1.00
H273   H     0.85587   0.61877   0.91339   0.00000  Uiso   1.00
H274   H     0.89661   0.73732   0.90225   0.00000  Uiso   1.00
H275   H     0.95382   0.69039   0.95695   0.00000  Uiso   1.00
H276   H     0.23708   0.90899   0.72588   0.00000  Uiso   1.00
H277   H     0.17693   0.79322   0.69893   0.00000  Uiso   1.00
H278   H     0.11573   0.86153   0.70646   0.00000  Uiso   1.00
H279   H     0.26902   1.05923   0.61902   0.00000  Uiso   1.00
H280   H     0.13934   1.00047   0.60486   0.00000  Uiso   1.00
H281   H     0.22843   1.02884   0.53656   0.00000  Uiso   1.00
H282   H     0.38975   0.15401   0.20018   0.00000  Uiso   1.00
H283   H     0.37267   0.24758   0.17625   0.00000  Uiso   1.00
H284   H     0.26623   0.14153   0.21084   0.00000  Uiso   1.00
H285   H     0.39234   0.37645   0.33701   0.00000  Uiso   1.00
H286   H     0.29686   0.34078   0.27476   0.00000  Uiso   1.00
H287   H     0.42410   0.38530   0.24634   0.00000  Uiso   1.00
H288   H     0.39688   0.07513   0.53764   0.00000  Uiso   1.00
H289   H     0.47926   0.19734   0.51963   0.00000  Uiso   1.00
H290   H     0.36906   0.16725   0.56588   0.00000  Uiso   1.00
H291   H     0.52105   0.12127   0.73451   0.00000  Uiso   1.00
H292   H     0.42395   0.02726   0.68317   0.00000  Uiso   1.00
H293   H     0.39652   0.11032   0.72529   0.00000  Uiso   1.00
H294   H     0.43209   0.43300   0.50836   0.00000  Uiso   1.00
H295   H     0.43341   0.33495   0.55284   0.00000  Uiso   1.00
H296   H     0.36721   0.32379   0.48024   0.00000  Uiso   1.00
H297   H     0.49725   0.54743   0.25303   0.00000  Uiso   1.00
H298   H     0.53905   0.65438   0.29052   0.00000  Uiso   1.00
H299   H     0.44048   0.56343   0.33166   0.00000  Uiso   1.00
H300   H     0.40264   0.43148   0.91085   0.00000  Uiso   1.00
H301   H     0.32528   0.44624   0.84692   0.00000  Uiso   1.00
H302   H     0.43257   0.54374   0.86895   0.00000  Uiso   1.00
H303   H     0.48122   0.30447   0.65265   0.00000  Uiso   1.00
H304   H     0.58368   0.33803   0.60328   0.00000  Uiso   1.00
H305   H     0.58658   0.30809   0.69574   0.00000  Uiso   1.00
H306   H     0.38397   0.26640   0.79627   0.00000  Uiso   1.00
H307   H     0.45634   0.30257   0.87359   0.00000  Uiso   1.00
H308   H     0.51204   0.30344   0.79807   0.00000  Uiso   1.00
H309   H     0.43762   0.42884   0.68127   0.00000  Uiso   1.00
H310   H     0.40308   0.50915   0.71965   0.00000  Uiso   1.00
H311   H     0.33453   0.39835   0.73628   0.00000  Uiso   1.00
H312   H     0.23077   0.51590   0.04607   0.00000  Uiso   1.00
H313   H     0.29044   0.44918   0.07805   0.00000  Uiso   1.00
H314   H     0.34039   0.52014   0.00109   0.00000  Uiso   1.00
H315   H     0.49305   0.52671   0.12558   0.00000  Uiso   1.00
H316   H     0.56886   0.65274   0.12213   0.00000  Uiso   1.00
H317   H     0.53290   0.58041   0.05378   0.00000  Uiso   1.00
H318   H     0.28362   0.63043   0.17336   0.00000  Uiso   1.00
H319   H     0.41321   0.67757   0.20555   0.00000  Uiso   1.00
H320   H     0.32541   0.54958   0.20415   0.00000  Uiso   1.00
H321   H     0.29605   0.77773   0.21465   0.00000  Uiso   1.00
H322   H     0.41470   0.81460   0.18761   0.00000  Uiso   1.00
H323   H     0.32070   0.80445   0.13029   0.00000  Uiso   1.00
H324   H     0.48704   1.01197   0.11481   0.00000  Uiso   1.00
H325   H     0.48842   1.10802   0.15379   0.00000  Uiso   1.00
H326   H     0.38248   1.03899   0.10155   0.00000  Uiso   1.00
H327   H     0.23771   0.87777   0.25708   0.00000  Uiso   1.00
H328   H     0.23413   0.96218   0.19421   0.00000  Uiso   1.00
H329   H     0.28582   1.00484   0.27256   0.00000  Uiso   1.00
H330   H     0.54935   0.89421   0.12474   0.00000  Uiso   1.00
H331   H     0.65546   0.91464   0.06717   0.00000  Uiso   1.00
H332   H     0.61444   0.81444   0.12160   0.00000  Uiso   1.00
H333   H     0.49692   0.93593   0.97401   0.00000  Uiso   1.00
H334   H     0.39500   0.88578   1.03494   0.00000  Uiso   1.00
H335   H     0.37697   0.83529   0.96047   0.00000  Uiso   1.00
H336   H     0.62547   0.77145   0.98554   0.00000  Uiso   1.00
H337   H     0.59602   0.83440   0.92060   0.00000  Uiso   1.00
H338   H     0.52672   0.71225   0.93378   0.00000  Uiso   1.00
H339   H     0.41421   0.63143   0.43218   0.00000  Uiso   1.00
H340   H     0.44396   0.68422   0.50958   0.00000  Uiso   1.00
H341   H     0.45016   0.58201   0.50608   0.00000  Uiso   1.00
H342   H     0.24457   0.71869   0.52699   0.00000  Uiso   1.00
H343   H     0.30604   0.72141   0.45566   0.00000  Uiso   1.00
H344   H     0.22824   0.77956   0.45571   0.00000  Uiso   1.00
H345   H     0.55161   0.76274   0.36037   0.00000  Uiso   1.00
H346   H     0.68164   0.80057   0.35888   0.00000  Uiso   1.00
H347   H     0.61959   0.84669   0.41795   0.00000  Uiso   1.00
H348   H     0.44984   0.81359   0.40396   0.00000  Uiso   1.00
H349   H     0.42225   0.76739   0.32420   0.00000  Uiso   1.00
H350   H     0.33913   0.82054   0.35060   0.00000  Uiso   1.00
H351   H     0.67863   0.95336   0.30774   0.00000  Uiso   1.00
H352   H     0.61992   0.95363   0.22848   0.00000  Uiso   1.00
H353   H     0.59489   0.84922   0.27182   0.00000  Uiso   1.00
H354   H     0.31059   0.63151   0.75188   0.00000  Uiso   1.00
H355   H     0.28417   0.72060   0.78683   0.00000  Uiso   1.00
H356   H     0.33365   0.64651   0.83024   0.00000  Uiso   1.00
H357   H     0.50781   0.63348   0.78065   0.00000  Uiso   1.00
H358   H     0.57875   0.74225   0.82151   0.00000  Uiso   1.00
H359   H     0.58846   0.72933   0.73500   0.00000  Uiso   1.00
H360   H     0.46448   0.84847   0.85459   0.00000  Uiso   1.00
H361   H     0.41558   0.88732   0.78389   0.00000  Uiso   1.00
H362   H     0.54385   0.92005   0.79254   0.00000  Uiso   1.00
H363   H     0.64730   0.97873   0.61700   0.00000  Uiso   1.00
H364   H     0.58596   0.97150   0.69158   0.00000  Uiso   1.00
H365   H     0.53154   0.98446   0.61715   0.00000  Uiso   1.00
H366   H     0.83972   0.05016   0.10302   0.00000  Uiso   1.00
H367   H     0.83713   0.11819   0.17132   0.00000  Uiso   1.00
H368   H     0.73868   0.01074   0.16078   0.00000  Uiso   1.00
H369   H     0.73103   0.85699   0.22386   0.00000  Uiso   1.00
H370   H     0.81910   0.84859   0.27628   0.00000  Uiso   1.00
H371   H     0.81657   0.82195   0.19075   0.00000  Uiso   1.00
H372   H     0.98051   0.96078   0.12161   0.00000  Uiso   1.00
H373   H     1.04625   1.00252   0.19629   0.00000  Uiso   1.00
H374   H     1.02234   1.07905   0.12954   0.00000  Uiso   1.00
H375   H     0.58639   0.13519   0.24335   0.00000  Uiso   1.00
H376   H     0.69449   0.11542   0.22129   0.00000  Uiso   1.00
H377   H     0.66701   0.20971   0.19200   0.00000  Uiso   1.00
H378   H     0.89380   0.32611   0.31335   0.00000  Uiso   1.00
H379   H     0.82114   0.37409   0.26854   0.00000  Uiso   1.00
H380   H     0.85859   0.29050   0.23579   0.00000  Uiso   1.00
H381   H     0.82140   0.93408   0.37908   0.00000  Uiso   1.00
H382   H     0.86600   0.87398   0.44194   0.00000  Uiso   1.00
H383   H     0.93810   0.99415   0.40875   0.00000  Uiso   1.00
H384   H     0.75014   0.83410   0.77530   0.00000  Uiso   1.00
H385   H     0.69165   0.85632   0.70429   0.00000  Uiso   1.00
H386   H     0.67856   0.90747   0.77206   0.00000  Uiso   1.00
H387   H     0.66135   0.04141   0.86393   0.00000  Uiso   1.00
H388   H     0.76239   0.09303   0.81068   0.00000  Uiso   1.00
H389   H     0.64705   0.07977   0.77486   0.00000  Uiso   1.00
H390   H     0.87427   0.24408   0.89468   0.00000  Uiso   1.00
H391   H     0.77032   0.21508   0.94650   0.00000  Uiso   1.00
H392   H     0.82709   0.33310   0.90596   0.00000  Uiso   1.00
H393   H     0.59046   0.16162   0.92984   0.00000  Uiso   1.00
H394   H     0.54188   0.15852   0.84529   0.00000  Uiso   1.00
H395   H     0.59633   0.26221   0.88640   0.00000  Uiso   1.00
H396   H     0.57019   0.36643   0.28324   0.00000  Uiso   1.00
H397   H     0.66458   0.34008   0.24183   0.00000  Uiso   1.00
H398   H     0.59705   0.38706   0.20149   0.00000  Uiso   1.00
H399   H     0.65387   0.61450   0.62994   0.00000  Uiso   1.00
H400   H     0.58105   0.49144   0.62983   0.00000  Uiso   1.00
H401   H     0.55984   0.56956   0.57227   0.00000  Uiso   1.00
H402   H     0.98983   0.43738   0.72886   0.00000  Uiso   1.00
H403   H     0.95798   0.35256   0.79289   0.00000  Uiso   1.00
H404   H     0.92581   0.45243   0.79743   0.00000  Uiso   1.00
H405   H     0.79815   0.49580   0.86366   0.00000  Uiso   1.00
H406   H     0.69923   0.40862   0.82408   0.00000  Uiso   1.00
H407   H     0.67991   0.43071   0.90432   0.00000  Uiso   1.00
H408   H     0.67368   0.67833   0.88967   0.00000  Uiso   1.00
H409   H     0.71729   0.60808   0.93718   0.00000  Uiso   1.00
H410   H     0.59313   0.56994   0.91789   0.00000  Uiso   1.00
H411   H     0.91001   0.44923   0.15884   0.00000  Uiso   1.00
H412   H     0.85104   0.43646   0.07880   0.00000  Uiso   1.00
H413   H     0.78063   0.37534   0.14450   0.00000  Uiso   1.00
H414   H     0.70719   0.58928   0.07515   0.00000  Uiso   1.00
H415   H     0.64305   0.47823   0.09792   0.00000  Uiso   1.00
H416   H     0.72942   0.49453   0.03629   0.00000  Uiso   1.00
H417   H     0.84214   0.68770   0.34185   0.00000  Uiso   1.00
H418   H     0.90661   0.78649   0.38349   0.00000  Uiso   1.00
H419   H     0.77922   0.72990   0.38872   0.00000  Uiso   1.00
loop_
_geom_bond_atom_site_label_1
_geom_bond_atom_site_label_2
_geom_bond_distance
_geom_bond_site_symmetry_2
_ccdc_geom_bond_type
Si1    O54     1.623   .     S
Si1    O63     1.583   .     S
Si1    O134    1.564   1_455 S
Si1    O144    1.630   1_455 S
Si2    C52     1.870   .     S
Si2    O55     1.630   .     S
Si2    C53     1.822   1_545 S
Si2    O85     1.598   1_545 S
Si3    O59     1.553   .     S
Si3    O70     1.580   .     S
Si3    O140    1.565   1_455 S
Si3    O152    1.598   1_455 S
Si4    O54     1.660   .     S
Si4    O55     1.589   .     S
Si4    O71     1.588   .     S
Si4    O94     1.613   .     S
Si5    C56     1.851   .     S
Si5    C57     1.895   .     S
Si5    C58     1.806   1_455 S
Si5    O147    1.613   1_455 S
Si6    O59     1.548   .     S
Si6    C60     1.956   .     S
Si6    C61     1.869   .     S
Si6    C62     1.884   .     S
Si7    O63     1.576   .     S
Si7    C64     1.812   .     S
Si7    C65     1.805   .     S
Si7    C66     1.837   .     S
Si8    C67     1.843   .     S
Si8    C68     1.830   .     S
Si8    C69     1.889   1_455 S
Si8    O162    1.606   1_455 S
Si9    O70     1.538   .     S
Si9    O71     1.609   .     S
Si9    C72     1.778   .     S
Si9    C73     1.883   .     S
Si10   C74     1.822   .     S
Si10   O75     1.563   .     S
Si10   O159    1.618   1_455 S
Si10   O171    1.598   1_455 S
Si11   O75     1.571   .     S
Si11   C76     1.926   .     S
Si11   C77     1.873   .     S
Si11   C78     1.912   .     S
Si12   C79     1.894   .     S
Si12   C80     1.906   .     S
Si12   C81     1.801   1_455 S
Si12   O177    1.582   1_455 S
Si13   C82     1.862   .     S
Si13   C83     1.852   .     S
Si13   C84     1.835   1_554 S
Si13   O86     1.588   1_554 S
Si14   O85     1.623   .     S
Si14   O89     1.662   .     S
Si14   O181    1.605   1_455 S
Si14   O188    1.675   1_455 S
Si15   O86     1.559   .     S
Si15   C87     1.834   .     S
Si15   C88     1.836   1_455 S
Si15   O187    1.590   1_455 S
Si16   O89     1.608   .     S
Si16   C90     1.929   .     S
Si16   C91     1.877   .     S
Si16   O121    1.636   .     S
Si17   C92     1.877   .     S
Si17   C93     1.873   .     S
Si17   O94     1.600   .     S
Si17   O95     1.619   .     S
Si18   O96     1.603   .     S
Si18   O142    1.661   .     S
Si18   O120    1.674   1_545 S
Si18   O125    1.585   1_545 S
Si19   O95     1.629   .     S
Si19   O96     1.598   .     S
Si19   O100    1.599   .     S
Si19   O139    1.621   .     S
Si20   C97     1.812   .     S
Si20   C98     1.840   .     S
Si20   C104    1.864   .     S
Si20   O143    1.598   .     S
Si21   C99     1.786   .     S
Si21   O100    1.638   .     S
Si21   O102    1.641   .     S
Si21   O160    1.617   .     S
Si22   C101    1.884   .     S
Si22   O102    1.568   .     S
Si22   O118    1.637   .     S
Si22   O156    1.548   .     S
Si23   C103    1.918   .     S
Si23   C105    1.917   .     S
Si23   C106    1.820   .     S
Si23   O168    1.610   .     S
Si24   C107    1.814   .     S
Si24   C108    1.884   .     S
Si24   C109    1.921   .     S
Si24   O113    1.571   .     S
Si25   C110    1.900   .     S
Si25   C111    1.892   .     S
Si25   C112    1.787   .     S
Si25   O122    1.636   .     S
Si26   O113    1.613   .     S
Si26   C114    1.871   .     S
Si26   C115    1.849   1_554 S
Si26   C116    1.934   1_554 S
Si27   C117    1.873   .     S
Si27   O118    1.596   .     S
Si27   C123    1.800   .     S
Si27   O182    1.616   .     S
Si28   C119    1.841   .     S
Si28   O120    1.603   .     S
Si28   O121    1.613   .     S
Si28   O130    1.602   .     S
Si29   O122    1.609   .     S
Si29   C124    1.850   .     S
Si29   O125    1.617   .     S
Si29   C126    1.852   .     S
Si30   C127    1.760   .     S
Si30   C128    1.906   .     S
Si30   C129    1.893   .     S
Si30   O131    1.609   .     S
Si31   O130    1.591   .     S
Si31   O131    1.594   .     S
Si31   C132    1.797   .     S
Si31   O184    1.571   .     S
Si32   C133    1.827   .     S
Si32   O134    1.571   .     S
Si32   C135    1.904   1_545 S
Si32   C136    1.842   1_545 S
Si33   C137    1.871   .     S
Si33   C138    1.844   .     S
Si33   O139    1.642   .     S
Si33   O145    1.647   .     S
Si34   O140    1.607   .     S
Si34   O146    1.604   .     S
Si34   C141    1.873   1_545 S
Si34   O183    1.590   1_545 S
Si35   O142    1.620   .     S
Si35   O143    1.573   .     S
Si35   O153    1.608   .     S
Si35   O157    1.608   .     S
Si36   O144    1.585   .     S
Si36   O145    1.621   .     S
Si36   O146    1.646   .     S
Si36   O158    1.580   .     S
Si37   O147    1.626   .     S
Si37   O154    1.599   .     S
Si37   C148    1.867   1_545 S
Si37   O191    1.640   1_545 S
Si38   C149    1.853   .     S
Si38   C150    1.772   .     S
Si38   C151    1.822   .     S
Si38   O165    1.565   .     S
Si39   O152    1.595   .     S
Si39   O153    1.625   .     S
Si39   O154    1.646   .     S
Si39   O166    1.661   .     S
Si40   C155    1.881   .     S
Si40   O156    1.557   .     S
Si40   O163    1.615   .     S
Si40   O174    1.592   .     S
Si41   O157    1.617   .     S
Si41   O158    1.582   .     S
Si41   O159    1.635   .     S
Si41   O164    1.633   .     S
Si42   O160    1.610   .     S
Si42   C161    1.889   .     S
Si42   O172    1.579   .     S
Si42   O178    1.634   .     S
Si43   O162    1.613   .     S
Si43   O163    1.577   .     S
Si43   O164    1.597   .     S
Si43   O179    1.632   .     S
Si44   O165    1.574   .     S
Si44   O166    1.650   .     S
Si44   C167    1.852   .     S
Si44   O173    1.617   .     S
Si45   O168    1.609   .     S
Si45   C169    1.820   .     S
Si45   C170    1.866   .     S
Si45   O185    1.611   .     S
Si46   O171    1.591   .     S
Si46   O172    1.602   .     S
Si46   O173    1.596   .     S
Si46   O186    1.584   .     S
Si47   O174    1.631   .     S
Si47   C175    1.902   .     S
Si47   C176    1.824   .     S
Si47   O177    1.615   .     S
Si48   O178    1.608   .     S
Si48   O179    1.598   .     S
Si48   C180    1.851   .     S
Si48   O181    1.586   .     S
Si49   O182    1.551   .     S
Si49   O183    1.588   .     S
Si49   O184    1.612   .     S
Si49   O189    1.608   .     S
Si50   O185    1.639   .     S
Si50   O186    1.632   .     S
Si50   O187    1.609   .     S
Si50   O190    1.677   .     S
Si51   O188    1.620   .     S
Si51   O189    1.600   .     S
Si51   O190    1.658   .     S
Si51   O191    1.612   .     S
C52    H192    1.064   .     S
C52    H193    1.198   .     S
C52    H194    1.044   .     S
C53    H195    1.108   .     S
C53    H196    1.108   .     S
C53    H197    1.032   .     S
C53    Si2     1.822   1_565 S
C56    H198    1.093   .     S
C56    H199    1.098   .     S
C56    H200    1.127   .     S
C57    H201    1.123   .     S
C57    H202    1.093   .     S
C57    H203    1.146   .     S
C58    H204    1.119   .     S
C58    H205    1.089   .     S
C58    H206    1.119   .     S
C58    Si5     1.806   1_655 S
C60    H207    1.094   .     S
C60    H208    1.112   .     S
C60    H209    1.070   .     S
C61    H210    1.123   .     S
C61    H211    1.141   .     S
C61    H212    1.088   .     S
C62    H213    1.089   .     S
C62    H214    1.085   .     S
C62    H215    1.101   .     S
C64    H216    1.137   .     S
C64    H217    1.092   .     S
C64    H218    1.129   .     S
C65    H219    1.112   .     S
C65    H220    1.125   .     S
C65    H221    1.129   .     S
C66    H222    1.090   .     S
C66    H223    1.061   .     S
C66    H224    1.144   .     S
C67    H225    1.124   .     S
C67    H226    1.059   .     S
C67    H227    1.125   .     S
C68    H228    1.116   .     S
C68    H229    1.080   .     S
C68    H230    1.109   .     S
C69    H231    1.125   .     S
C69    H232    1.104   .     S
C69    H233    1.154   .     S
C69    Si8     1.889   1_655 S
C72    H234    1.101   .     S
C72    H235    1.080   .     S
C72    H236    1.149   .     S
C73    H237    1.065   .     S
C73    H238    1.079   .     S
C73    H239    1.084   .     S
C74    H240    1.071   .     S
C74    H241    1.148   .     S
C74    H242    1.049   .     S
C76    H243    1.088   .     S
C76    H244    1.062   .     S
C76    H245    1.101   .     S
C77    H246    1.117   .     S
C77    H247    1.056   .     S
C77    H248    1.144   .     S
C78    H249    1.132   .     S
C78    H250    1.103   .     S
C78    H251    1.097   .     S
C79    H252    1.054   .     S
C79    H253    1.127   .     S
C79    H254    1.126   .     S
C80    H255    1.103   .     S
C80    H256    1.051   .     S
C80    H257    1.141   .     S
C81    H258    1.067   .     S
C81    H259    1.160   .     S
C81    H260    1.166   .     S
C81    Si12    1.801   1_655 S
C82    H261    1.149   .     S
C82    H262    1.100   .     S
C82    H263    1.122   .     S
C83    H264    1.091   .     S
C83    H265    1.129   .     S
C83    H266    1.119   .     S
C84    H267    1.102   .     S
C84    H268    1.171   .     S
C84    H269    1.067   .     S
C84    Si13    1.835   1_556 S
O85    Si2     1.598   1_565 S
O86    Si13    1.588   1_556 S
C87    H270    1.150   .     S
C87    H271    1.104   .     S
C87    H272    1.162   .     S
C88    H273    1.131   .     S
C88    H274    1.069   .     S
C88    H275    1.057   .     S
C88    Si15    1.836   1_655 S
C90    H276    1.100   .     S
C90    H277    1.039   .     S
C90    H278    1.080   .     S
C91    H279    1.115   .     S
C91    H280    1.104   .     S
C91    H281    1.128   .     S
C92    H282    1.085   .     S
C92    H283    1.096   .     S
C92    H284    1.119   .     S
C93    H285    1.119   .     S
C93    H286    1.104   .     S
C93    H287    1.156   .     S
C97    H288    1.106   .     S
C97    H289    1.103   .     S
C97    H290    1.098   .     S
C98    H291    1.120   .     S
C98    H292    1.099   .     S
C98    H293    1.161   .     S
C99    H294    1.064   .     S
C99    H295    1.125   .     S
C99    H296    1.134   .     S
C101   H297    1.087   .     S
C101   H298    1.089   .     S
C101   H299    1.096   .     S
C103   H300    1.088   .     S
C103   H301    1.099   .     S
C103   H302    1.134   .     S
C104   H303    1.067   .     S
C104   H304    1.095   .     S
C104   H305    1.157   .     S
C105   H306    1.106   .     S
C105   H307    1.140   .     S
C105   H308    1.052   .     S
C106   H309    1.080   .     S
C106   H310    1.068   .     S
C106   H311    1.082   .     S
C107   H312    1.137   .     S
C107   H313    1.119   .     S
C107   H314    1.110   .     S
C108   H315    1.119   .     S
C108   H316    1.098   .     S
C108   H317    1.101   .     S
C109   H318    1.097   .     S
C109   H319    1.161   .     S
C109   H320    1.130   .     S
C110   H321    1.109   .     S
C110   H322    1.092   .     S
C110   H323    1.125   .     S
C111   H324    1.106   .     S
C111   H325    1.106   .     S
C111   H326    1.142   .     S
C112   H327    1.114   .     S
C112   H328    1.141   .     S
C112   H329    1.097   .     S
C114   H330    1.156   .     S
C114   H331    1.111   .     S
C114   H332    1.141   .     S
C115   H333    1.157   .     S
C115   H334    1.100   .     S
C115   H335    1.123   .     S
C115   Si26    1.849   1_556 S
C116   H336    1.093   .     S
C116   H337    1.101   .     S
C116   H338    1.074   .     S
C116   Si26    1.934   1_556 S
C117   H339    1.109   .     S
C117   H340    1.085   .     S
C117   H341    1.076   .     S
C119   H342    1.080   .     S
C119   H343    1.097   .     S
C119   H344    1.133   .     S
O120   Si18    1.674   1_565 S
C123   H345    1.078   .     S
C123   H346    1.131   .     S
C123   H347    1.149   .     S
C124   H348    1.177   .     S
C124   H349    1.156   .     S
C124   H350    1.181   .     S
O125   Si18    1.585   1_565 S
C126   H351    1.103   .     S
C126   H352    1.094   .     S
C126   H353    1.104   .     S
C127   H354    1.036   .     S
C127   H355    1.113   .     S
C127   H356    1.063   .     S
C128   H357    1.141   .     S
C128   H358    1.112   .     S
C128   H359    1.059   .     S
C129   H360    1.088   .     S
C129   H361    1.106   .     S
C129   H362    1.110   .     S
C132   H363    1.067   .     S
C132   H364    1.087   .     S
C132   H365    1.142   .     S
C133   H366    1.117   .     S
C133   H367    1.082   .     S
C133   H368    1.100   .     S
O134   Si1     1.564   1_655 S
C135   H369    1.103   .     S
C135   H370    1.098   .     S
C135   H371    1.138   .     S
C135   Si32    1.904   1_565 S
C136   H372    1.112   .     S
C136   H373    1.136   .     S
C136   H374    1.149   .     S
C136   Si32    1.842   1_565 S
C137   H375    1.047   .     S
C137   H376    1.093   .     S
C137   H377    1.134   .     S
C138   H378    1.065   .     S
C138   H379    1.115   .     S
C138   H380    1.095   .     S
O140   Si3     1.565   1_655 S
C141   H381    1.112   .     S
C141   H382    1.098   .     S
C141   H383    1.127   .     S
C141   Si34    1.873   1_565 S
O144   Si1     1.630   1_655 S
O147   Si5     1.613   1_655 S
C148   H384    1.131   .     S
C148   H385    1.094   .     S
C148   H386    1.090   .     S
C148   Si37    1.867   1_565 S
C149   H387    1.172   .     S
C149   H388    1.058   .     S
C149   H389    1.160   .     S
C150   H390    1.088   .     S
C150   H391    1.118   .     S
C150   H392    1.140   .     S
C151   H393    1.078   .     S
C151   H394    1.151   .     S
C151   H395    1.127   .     S
O152   Si3     1.598   1_655 S
C155   H396    1.088   .     S
C155   H397    1.110   .     S
C155   H398    1.068   .     S
O159   Si10    1.618   1_655 S
C161   H399    1.104   .     S
C161   H400    1.064   .     S
C161   H401    1.099   .     S
O162   Si8     1.606   1_655 S
C167   H402    1.077   .     S
C167   H403    1.135   .     S
C167   H404    1.134   .     S
C169   H405    1.070   .     S
C169   H406    1.024   .     S
C169   H407    1.139   .     S
C170   H408    1.080   .     S
C170   H409    1.075   .     S
C170   H410    1.085   .     S
O171   Si10    1.598   1_655 S
C175   H411    1.142   .     S
C175   H412    1.113   .     S
C175   H413    1.064   .     S
C176   H414    1.112   .     S
C176   H415    1.091   .     S
C176   H416    1.064   .     S
O177   Si12    1.582   1_655 S
C180   H417    1.080   .     S
C180   H418    1.041   .     S
C180   H419    1.097   .     S
O181   Si14    1.605   1_655 S
O183   Si34    1.590   1_565 S
O187   Si15    1.590   1_655 S
O188   Si14    1.675   1_655 S
O191   Si37    1.640   1_565 S
