data_333-15-11-10-15-30-15
_audit_creation_date              2025-03-07
_audit_creation_method            'Materials Studio'
_symmetry_space_group_name_H-M    'P1'
_symmetry_Int_Tables_number       1
_symmetry_cell_setting            triclinic
loop_
_symmetry_equiv_pos_as_xyz
  x,y,z
_cell_length_a                    16.8138
_cell_length_b                    16.1983
_cell_length_c                    19.3464
_cell_angle_alpha                 83.1643
_cell_angle_beta                  86.9059
_cell_angle_gamma                 121.2804
loop_
_atom_site_label
_atom_site_type_symbol
_atom_site_fract_x
_atom_site_fract_y
_atom_site_fract_z
_atom_site_U_iso_or_equiv
_atom_site_adp_type
_atom_site_occupancy
Si1    Si    0.19153   0.05090   0.13674   0.00000  Uiso   1.00
Si2    Si    0.08612   0.20571   0.19827   0.00000  Uiso   1.00
Si3    Si    0.14233   0.11902  -0.00916   0.00000  Uiso   1.00
Si4    Si    0.14084   0.00209   0.44180   0.00000  Uiso   1.00
Si5    Si    0.17471   0.17924   0.32461   0.00000  Uiso   1.00
Si6    Si    0.21947   0.15254   0.65167   0.00000  Uiso   1.00
Si7    Si    0.00373   0.47488   0.25486   0.00000  Uiso   1.00
Si8    Si    0.14327   0.30512   0.42583   0.00000  Uiso   1.00
Si9    Si    0.15061   0.49153   0.34823   0.00000  Uiso   1.00
Si10   Si    0.00538   0.87746   0.24405   0.00000  Uiso   1.00
Si11   Si    0.24891   0.93931   0.04578   0.00000  Uiso   1.00
Si12   Si    0.12424   0.65019   0.42508   0.00000  Uiso   1.00
Si13   Si   -0.02413   0.86727   0.55464   0.00000  Uiso   1.00
Si14   Si    0.11061   0.83256   0.35498   0.00000  Uiso   1.00
Si15   Si    0.34296   0.21814   0.21945   0.00000  Uiso   1.00
Si16   Si    0.54346   0.28041   0.05343   0.00000  Uiso   1.00
Si17   Si    0.43112  -0.01025   0.39984   0.00000  Uiso   1.00
Si18   Si    0.30851   0.12977   0.51973   0.00000  Uiso   1.00
Si19   Si    0.47046   0.17315   0.30914   0.00000  Uiso   1.00
Si20   Si    0.40351   0.05685   0.62343   0.00000  Uiso   1.00
Si21   Si    0.50509   0.41435   0.13084   0.00000  Uiso   1.00
Si22   Si    0.34291   0.53398   0.27105   0.00000  Uiso   1.00
Si23   Si    0.49475   0.55316   0.01338   0.00000  Uiso   1.00
Si24   Si    0.46925   0.30837   0.41134   0.00000  Uiso   1.00
Si25   Si    0.48086   0.49520   0.34206   0.00000  Uiso   1.00
Si26   Si    0.49924   0.12593   0.75226   0.00000  Uiso   1.00
Si27   Si    0.34405   0.58652   0.96109   0.00000  Uiso   1.00
Si28   Si    0.61028   0.75887   0.05420   0.00000  Uiso   1.00
Si29   Si    0.25856   0.85762   0.25130   0.00000  Uiso   1.00
Si30   Si    0.48507   0.58934   0.46814   0.00000  Uiso   1.00
Si31   Si    0.26849   0.80254   0.49146   0.00000  Uiso   1.00
Si32   Si    0.51058   0.73630   0.65900   0.00000  Uiso   1.00
Si33   Si    0.65707   0.19315   0.24660   0.00000  Uiso   1.00
Si34   Si    0.91615   0.32076   0.02746   0.00000  Uiso   1.00
Si35   Si    0.76767  -0.05047   0.40027   0.00000  Uiso   1.00
Si36   Si    0.54171   0.04862   0.51900   0.00000  Uiso   1.00
Si37   Si    0.77243   0.13089   0.33341   0.00000  Uiso   1.00
Si38   Si    0.80092  -0.00272   0.68652   0.00000  Uiso   1.00
Si39   Si    0.85120   0.36462   0.16425   0.00000  Uiso   1.00
Si40   Si    0.63970   0.55056   0.22789   0.00000  Uiso   1.00
Si41   Si    0.59147   0.40654   0.52205   0.00000  Uiso   1.00
Si42   Si    0.87753   0.45130   0.38825   0.00000  Uiso   1.00
Si43   Si    0.60014   0.54838   0.87408   0.00000  Uiso   1.00
Si44   Si    0.79301   0.52836   0.73619   0.00000  Uiso   1.00
Si45   Si    0.85843   0.68896   0.18889   0.00000  Uiso   1.00
Si46   Si    0.70977   0.85679   0.17241   0.00000  Uiso   1.00
Si47   Si    0.87111   0.70700   0.03105   0.00000  Uiso   1.00
Si48   Si    0.63827   0.77006   0.52448   0.00000  Uiso   1.00
Si49   Si    0.82354   0.85619   0.29076   0.00000  Uiso   1.00
Si50   Si    0.77497   0.70052   0.76396   0.00000  Uiso   1.00
Si51   Si    0.78636   0.82418   0.62476   0.00000  Uiso   1.00
C52    C     0.18933   0.27960   0.12420   0.00000  Uiso   1.00
C53    C     0.98683   0.10728   0.16032   0.00000  Uiso   1.00
O54    O     0.14883   0.07692   0.07025   0.00000  Uiso   1.00
C55    C     0.24860   0.23506  -0.04983   0.00000  Uiso   1.00
C56    C     0.04324   0.13857   0.99166   0.00000  Uiso   1.00
C57    C     0.11333   0.03664   0.92479   0.00000  Uiso   1.00
O58    O     0.11220   0.15560   0.26295   0.00000  Uiso   1.00
O59    O     0.13954   0.08055   0.38076   0.00000  Uiso   1.00
C60    C     0.18877   0.24850   0.65541   0.00000  Uiso   1.00
C61    C     0.11481   0.03883   0.69934   0.00000  Uiso   1.00
C62    C     0.29569   0.16353   0.71891   0.00000  Uiso   1.00
C63    C     0.07850   0.57294   0.17820   0.00000  Uiso   1.00
C64    C     0.04125   0.20550   0.48041   0.00000  Uiso   1.00
O65    O     0.17044   0.26405   0.36007   0.00000  Uiso   1.00
C66    C     0.24460   0.36040   0.47497   0.00000  Uiso   1.00
O67    O     0.07613   0.45397   0.29203   0.00000  Uiso   1.00
O68    O     0.12536   0.39414   0.40102   0.00000  Uiso   1.00
O69    O     0.10002   0.97788   0.19823   0.00000  Uiso   1.00
C70    C     0.13010   0.83542   0.03276   0.00000  Uiso   1.00
O71    O     0.23357   0.98942   0.10986   0.00000  Uiso   1.00
C72    C     0.30647   1.03859   0.96538   0.00000  Uiso   1.00
C73    C     0.33702   0.89476   1.04207   0.00000  Uiso   1.00
C74    C     0.06162   0.58154   0.51759   0.00000  Uiso   1.00
O75    O     0.12869   0.56903   0.38104   0.00000  Uiso   1.00
C76    C     0.02324   0.82915   0.63032   0.00000  Uiso   1.00
O77    O     0.05262   0.96265   0.49850   0.00000  Uiso   1.00
C78    C     0.92287   0.76540   0.50456   0.00000  Uiso   1.00
O79    O     0.03849   0.82582   0.30186   0.00000  Uiso   1.00
O80    O     0.08713   0.72059   0.38935   0.00000  Uiso   1.00
O81    O     0.12644   0.90463   0.41104   0.00000  Uiso   1.00
O82    O     0.27272   0.14729   0.16568   0.00000  Uiso   1.00
O83    O     0.28002   0.21667   0.28881   0.00000  Uiso   1.00
C84    C     0.48085   0.15522   0.09885   0.00000  Uiso   1.00
C85    C     0.46228   0.27656   0.98828   0.00000  Uiso   1.00
C86    C     0.66215   0.30752   1.01857   0.00000  Uiso   1.00
C87    C     0.48511   0.93222   0.35107   0.00000  Uiso   1.00
O88    O     0.23951   0.05132   0.47283   0.00000  Uiso   1.00
O89    O     0.24973   0.14656   0.57662   0.00000  Uiso   1.00
O90    O     0.40823   0.17983   0.24627   0.00000  Uiso   1.00
O91    O     0.41467   0.06153   0.34904   0.00000  Uiso   1.00
O92    O     0.37461   0.10512   0.56201   0.00000  Uiso   1.00
C93    C     0.30142  -0.06020   0.67454   0.00000  Uiso   1.00
O94    O     0.41257   0.33395   0.18250   0.00000  Uiso   1.00
O95    O     0.55112   0.35648   0.10464   0.00000  Uiso   1.00
C96    C     0.30501   0.46402   0.20207   0.00000  Uiso   1.00
O97    O     0.25590   0.54173   0.30689   0.00000  Uiso   1.00
O98    O     0.48466   0.46052   0.06037   0.00000  Uiso   1.00
O99    O     0.37278   0.23545   0.46743   0.00000  Uiso   1.00
O100   O     0.48838   0.25023   0.36210   0.00000  Uiso   1.00
O101   O     0.38818   0.49329   0.32227   0.00000  Uiso   1.00
O102   O     0.45290   0.38196   0.36474   0.00000  Uiso   1.00
C103   C     0.44917   0.00389   0.81000   0.00000  Uiso   1.00
O104   O     0.44888   0.11751   0.68198   0.00000  Uiso   1.00
C105   C     0.48289   0.20151   0.80985   0.00000  Uiso   1.00
C106   C     0.25991   0.50510   0.90316   0.00000  Uiso   1.00
O107   O     0.39461   0.53726   0.99687   0.00000  Uiso   1.00
C108   C     0.43476   0.70692   0.90433   0.00000  Uiso   1.00
C109   C     0.27858   0.61363   1.02527   0.00000  Uiso   1.00
C110   C     0.42807   0.64966   0.22249   0.00000  Uiso   1.00
C111   C     0.55002   0.82789   0.04677   0.00000  Uiso   1.00
O112   O     0.53486   0.64478   0.05442   0.00000  Uiso   1.00
C113   C     0.69271   0.81158  -0.03048   0.00000  Uiso   1.00
C114   C     0.16079   0.78719   0.20134   0.00000  Uiso   1.00
C115   C     0.29724   0.76645   0.27267   0.00000  Uiso   1.00
C116   C     0.35889   0.97946   0.21039   0.00000  Uiso   1.00
O117   O     0.21121   0.87875   0.31408   0.00000  Uiso   1.00
C118   C     0.40853   0.50137   0.54812   0.00000  Uiso   1.00
O119   O     0.50919   0.53902   0.41277   0.00000  Uiso   1.00
C120   C     0.42289   0.64916   0.42588   0.00000  Uiso   1.00
O121   O     0.22283   0.71710   0.44692   0.00000  Uiso   1.00
O122   O     0.33137   0.90638   0.43896   0.00000  Uiso   1.00
C123   C     0.17499   0.80748   0.54071   0.00000  Uiso   1.00
C124   C     0.33025   0.78119   0.56046   0.00000  Uiso   1.00
C125   C     0.38678   0.61982   0.66641   0.00000  Uiso   1.00
C126   C     0.56152   0.68881   0.72231   0.00000  Uiso   1.00
C127   C     0.50594   0.83524   0.69739   0.00000  Uiso   1.00
C128   C     0.62672   0.10531   0.18369   0.00000  Uiso   1.00
O129   O     0.57223   0.20571   0.27340   0.00000  Uiso   1.00
C130   C     1.03496   0.35240   1.02488   0.00000  Uiso   1.00
C131   C     0.85005   0.20015   0.00118   0.00000  Uiso   1.00
C132   C     0.90592   0.40380   0.95848   0.00000  Uiso   1.00
C133   C     0.87940   0.01544   0.44166   0.00000  Uiso   1.00
O134   O     0.49105   0.04825   0.45436   0.00000  Uiso   1.00
C135   C     0.57913  -0.04171   0.52491   0.00000  Uiso   1.00
C136   C     0.65667   0.16726   0.50669   0.00000  Uiso   1.00
O137   O     0.47551   0.03310   0.58962   0.00000  Uiso   1.00
C138   C     1.06849   0.30422   0.22190   0.00000  Uiso   1.00
C139   C     0.84218   0.12730   0.25490   0.00000  Uiso   1.00
O140   O     0.68929   0.14666   0.30977   0.00000  Uiso   1.00
O141   O     0.73973   0.02891   0.37826   0.00000  Uiso   1.00
C142   C     0.86719   0.22886   0.37652   0.00000  Uiso   1.00
C143   C     0.77058   0.08198   0.63683   0.00000  Uiso   1.00
C144   C     0.93055   0.06285   0.67696   0.00000  Uiso   1.00
C145   C     0.75023   0.96557   0.78020   0.00000  Uiso   1.00
O146   O     0.74707   0.29357   0.20941   0.00000  Uiso   1.00
O147   O     0.87004   0.31589   0.10353   0.00000  Uiso   1.00
C148   C     0.85641   0.47516   0.11557   0.00000  Uiso   1.00
O149   O     0.92289   0.38596   0.22157   0.00000  Uiso   1.00
O150   O     0.58409   0.51135   0.16170   0.00000  Uiso   1.00
O151   O     0.57119   0.55865   0.28340   0.00000  Uiso   1.00
O152   O     0.55813   0.36613   0.45110   0.00000  Uiso   1.00
C153   C     0.66246   0.54561   0.51545   0.00000  Uiso   1.00
C154   C     0.49233   0.35905   0.59779   0.00000  Uiso   1.00
O155   O     0.95089   0.49888   0.31457   0.00000  Uiso   1.00
C156   C     0.64237   0.44633   0.26661   0.00000  Uiso   1.00
C157   C     0.75867   0.36946   0.36743   0.00000  Uiso   1.00
C158   C     0.90316   0.39161   0.46410   0.00000  Uiso   1.00
C159   C     0.86247   0.54655   0.42013   0.00000  Uiso   1.00
C160   C     0.62358   0.18506   0.72678   0.00000  Uiso   1.00
C161   C     0.48851   0.46414   0.83976   0.00000  Uiso   1.00
C162   C     0.66432   0.49353   0.90423   0.00000  Uiso   1.00
O163   O     0.56324   0.57806   0.94031   0.00000  Uiso   1.00
C164   C     0.82382   0.45590   0.79852   0.00000  Uiso   1.00
C165   C     0.67707   0.37106   0.55442   0.00000  Uiso   1.00
C166   C     0.87396   0.56776   0.65042   0.00000  Uiso   1.00
C167   C     0.67102   0.45257   0.71837   0.00000  Uiso   1.00
O168   O     0.74693   0.65080   0.20717   0.00000  Uiso   1.00
C169   C     0.88525   0.61485   0.25137   0.00000  Uiso   1.00
O170   O     0.93852   0.80143   0.19611   0.00000  Uiso   1.00
O171   O     0.65799   0.77274   0.12458   0.00000  Uiso   1.00
C172   C     0.77203   0.96816   0.10469   0.00000  Uiso   1.00
C173   C     0.62155   0.85462   0.24006   0.00000  Uiso   1.00
C174   C     0.93889   0.67787   0.96521   0.00000  Uiso   1.00
O175   O     0.87998   0.68036   0.11093   0.00000  Uiso   1.00
C176   C     0.89672   0.83645   0.02041   0.00000  Uiso   1.00
C177   C     0.74890   0.62158   1.02512   0.00000  Uiso   1.00
O178   O     0.58086   0.67026   0.49246   0.00000  Uiso   1.00
O179   O     0.67794   0.85808   0.45648   0.00000  Uiso   1.00
O180   O     0.56854   0.77529   0.58165   0.00000  Uiso   1.00
O181   O     0.93731   0.90294   0.28303   0.00000  Uiso   1.00
O182   O     0.78850   0.85098   0.21256   0.00000  Uiso   1.00
C183   C     0.76690   0.73889   0.35433   0.00000  Uiso   1.00
O184   O     0.79086   0.91453   0.33110   0.00000  Uiso   1.00
O185   O     0.67384   0.64247   0.81402   0.00000  Uiso   1.00
O186   O     0.80950   0.62525   0.76262   0.00000  Uiso   1.00
C187   C     0.85545   0.80356   0.81218   0.00000  Uiso   1.00
O188   O     0.89304   0.87952   0.58647   0.00000  Uiso   1.00
O189   O     0.71980   0.77928   0.56441   0.00000  Uiso   1.00
O190   O     0.76455   0.73246   0.68330   0.00000  Uiso   1.00
O191   O     0.76683   0.90176   0.65102   0.00000  Uiso   1.00
H192   H     0.18706   0.22844   0.09125   0.00000  Uiso   1.00
H193   H     0.25706   0.31421   0.14620   0.00000  Uiso   1.00
H194   H     0.19061   0.34018   0.09152   0.00000  Uiso   1.00
H195   H     1.00702   0.06072   0.13859   0.00000  Uiso   1.00
H196   H     0.95312   0.14056   0.12386   0.00000  Uiso   1.00
H197   H     0.93397   0.05435   0.20055   0.00000  Uiso   1.00
H198   H     0.26503   0.28860  -0.01661   0.00000  Uiso   1.00
H199   H     0.23205   0.26846  -0.09888   0.00000  Uiso   1.00
H200   H     0.30763   0.23093  -0.07101   0.00000  Uiso   1.00
H201   H     0.03415   0.15640   0.93693   0.00000  Uiso   1.00
H202   H     0.06322   0.20601   1.01726   0.00000  Uiso   1.00
H203   H    -0.02668   0.06908   1.01318   0.00000  Uiso   1.00
H204   H     0.11610  -0.02981   0.94081   0.00000  Uiso   1.00
H205   H     0.16691   0.07358   0.87591   0.00000  Uiso   1.00
H206   H     0.04157   0.01175   0.91510   0.00000  Uiso   1.00
H207   H     0.16184   0.23671   0.71191   0.00000  Uiso   1.00
H208   H     0.13699   0.24147   0.61989   0.00000  Uiso   1.00
H209   H     0.25535   0.31917   0.64459   0.00000  Uiso   1.00
H210   H     0.13578  -0.01546   0.72033   0.00000  Uiso   1.00
H211   H     0.05972   0.00685   0.66025   0.00000  Uiso   1.00
H212   H     0.09636   0.06636   0.74262   0.00000  Uiso   1.00
H213   H     0.36909   0.20844   0.69409   0.00000  Uiso   1.00
H214   H     0.27898   0.09202   0.73648   0.00000  Uiso   1.00
H215   H     0.29059   0.20071   0.75984   0.00000  Uiso   1.00
H216   H     0.04273   0.61414   0.16727   0.00000  Uiso   1.00
H217   H     0.08160   0.54148   0.13407   0.00000  Uiso   1.00
H218   H     0.14594   0.62087   0.19524   0.00000  Uiso   1.00
H219   H     0.04066   0.22692   0.53205   0.00000  Uiso   1.00
H220   H     0.04341   0.13794   0.49044   0.00000  Uiso   1.00
H221   H    -0.01924   0.19932   0.45748   0.00000  Uiso   1.00
H222   H     0.22494   0.37951   0.52031   0.00000  Uiso   1.00
H223   H     0.29749   0.42322   0.43932   0.00000  Uiso   1.00
H224   H     0.27022   0.31093   0.49102   0.00000  Uiso   1.00
H225   H     0.12602   0.76712   0.05707   0.00000  Uiso   1.00
H226   H     0.12829   0.82926  -0.02555   0.00000  Uiso   1.00
H227   H     0.07191   0.83340   0.05713   0.00000  Uiso   1.00
H228   H     0.27520   1.01550   0.91769   0.00000  Uiso   1.00
H229   H     0.38415   1.06511   0.96187   0.00000  Uiso   1.00
H230   H     0.30564   1.10561   0.97286   0.00000  Uiso   1.00
H231   H     0.34845   0.87684   0.98719   0.00000  Uiso   1.00
H232   H     0.31153   0.82224   1.07870   0.00000  Uiso   1.00
H233   H     0.40380   0.95575   1.05133   0.00000  Uiso   1.00
H234   H     0.05142   0.50673   0.52820   0.00000  Uiso   1.00
H235   H    -0.00601   0.57580   0.52716   0.00000  Uiso   1.00
H236   H     0.10981   0.61381   0.55565   0.00000  Uiso   1.00
H237   H     0.09680   0.88796   0.62628   0.00000  Uiso   1.00
H238   H     0.01828   0.76145   0.62354   0.00000  Uiso   1.00
H239   H    -0.01709   0.82194   0.67515   0.00000  Uiso   1.00
H240   H     0.84762   0.71914   0.52724   0.00000  Uiso   1.00
H241   H     0.96349   0.73164   0.50318   0.00000  Uiso   1.00
H242   H     0.93095   0.80168   0.44979   0.00000  Uiso   1.00
H243   H     0.49946   0.14976   0.15322   0.00000  Uiso   1.00
H244   H     0.49399   0.11116   0.06846   0.00000  Uiso   1.00
H245   H     0.40382   0.12685   0.10813   0.00000  Uiso   1.00
H246   H     0.39312   0.23597   1.01777   0.00000  Uiso   1.00
H247   H     0.46860   0.23589   0.94682   0.00000  Uiso   1.00
H248   H     0.47705   0.34862   0.96668   0.00000  Uiso   1.00
H249   H     0.70302   0.37999   0.98352   0.00000  Uiso   1.00
H250   H     0.65936   0.26077   0.98176   0.00000  Uiso   1.00
H251   H     0.70422   0.30770   1.05878   0.00000  Uiso   1.00
H252   H     0.56273   0.97647   0.34361   0.00000  Uiso   1.00
H253   H     0.45922   0.91057   0.30130   0.00000  Uiso   1.00
H254   H     0.47035   0.86558   0.38225   0.00000  Uiso   1.00
H255   H     0.29971  -0.07616   0.72867   0.00000  Uiso   1.00
H256   H     0.27952  -0.12469   0.64876   0.00000  Uiso   1.00
H257   H     0.24237  -0.04971   0.66890   0.00000  Uiso   1.00
H258   H     0.26191   0.38938   0.23227   0.00000  Uiso   1.00
H259   H     0.36588   0.46841   0.17303   0.00000  Uiso   1.00
H260   H     0.26933   0.49604   0.17272   0.00000  Uiso   1.00
H261   H     0.36981  -0.02438   0.82169   0.00000  Uiso   1.00
H262   H     0.48561   0.00693   0.85825   0.00000  Uiso   1.00
H263   H     0.46079  -0.04177   0.78183   0.00000  Uiso   1.00
H264   H     0.53558   0.22124   0.84737   0.00000  Uiso   1.00
H265   H     0.41095   0.16586   0.83828   0.00000  Uiso   1.00
H266   H     0.50033   0.27096   0.77645   0.00000  Uiso   1.00
H267   H     0.21094   0.53169   0.89428   0.00000  Uiso   1.00
H268   H     0.22025   0.42593   0.93339   0.00000  Uiso   1.00
H269   H     0.30465   0.51795   0.85187   0.00000  Uiso   1.00
H270   H     0.50405   0.72614   0.91387   0.00000  Uiso   1.00
H271   H     0.42163   0.76379   0.91067   0.00000  Uiso   1.00
H272   H     0.42530   0.69240   0.85008   0.00000  Uiso   1.00
H273   H     0.32228   0.65131   1.06713   0.00000  Uiso   1.00
H274   H     0.21791   0.53993   1.04835   0.00000  Uiso   1.00
H275   H     0.25214   0.65251   0.99595   0.00000  Uiso   1.00
H276   H     0.43594   0.69974   0.26000   0.00000  Uiso   1.00
H277   H     0.40525   0.67173   0.17581   0.00000  Uiso   1.00
H278   H     0.49282   0.65208   0.21391   0.00000  Uiso   1.00
H279   H     0.47891   0.78417   0.03087   0.00000  Uiso   1.00
H280   H     0.59260   0.89021   0.00449   0.00000  Uiso   1.00
H281   H     0.53702   0.85070   0.09802   0.00000  Uiso   1.00
H282   H     0.74607   0.88837  -0.02883   0.00000  Uiso   1.00
H283   H     0.66108   0.81413  -0.07700   0.00000  Uiso   1.00
H284   H     0.72334   0.76988  -0.03718   0.00000  Uiso   1.00
H285   H     0.10963   0.72399   0.24024   0.00000  Uiso   1.00
H286   H     0.18731   0.76535   0.15608   0.00000  Uiso   1.00
H287   H     0.12951   0.83200   0.18015   0.00000  Uiso   1.00
H288   H     0.24099   0.69377   0.26517   0.00000  Uiso   1.00
H289   H     0.31346   0.77287   0.32731   0.00000  Uiso   1.00
H290   H     0.36103   0.78962   0.23593   0.00000  Uiso   1.00
H291   H     0.39293   0.97438   0.16134   0.00000  Uiso   1.00
H292   H     0.40712   0.98926   0.24980   0.00000  Uiso   1.00
H293   H     0.33417   1.02664   0.20479   0.00000  Uiso   1.00
H294   H     0.38445   0.42746   0.54691   0.00000  Uiso   1.00
H295   H     0.34474   0.49991   0.56050   0.00000  Uiso   1.00
H296   H     0.45756   0.52494   0.59150   0.00000  Uiso   1.00
H297   H     0.42386   0.70062   0.45604   0.00000  Uiso   1.00
H298   H     0.35146   0.59765   0.41879   0.00000  Uiso   1.00
H299   H     0.46760   0.68556   0.37280   0.00000  Uiso   1.00
H300   H     0.15306   0.75293   0.58799   0.00000  Uiso   1.00
H301   H     0.11170   0.78963   0.51174   0.00000  Uiso   1.00
H302   H     0.20559   0.88366   0.55664   0.00000  Uiso   1.00
H303   H     0.37107   0.74938   0.54611   0.00000  Uiso   1.00
H304   H     0.27736   0.73046   0.60561   0.00000  Uiso   1.00
H305   H     0.37899   0.85802   0.57205   0.00000  Uiso   1.00
H306   H     0.36736   0.62604   0.61203   0.00000  Uiso   1.00
H307   H     0.33897   0.62438   0.70508   0.00000  Uiso   1.00
H308   H     0.38143   0.55073   0.67985   0.00000  Uiso   1.00
H309   H     0.58574   0.64569   0.69552   0.00000  Uiso   1.00
H310   H     0.50950   0.63254   0.76290   0.00000  Uiso   1.00
H311   H     0.62009   0.74751   0.74075   0.00000  Uiso   1.00
H312   H     0.48686   0.82060   0.75099   0.00000  Uiso   1.00
H313   H     0.45846   0.85241   0.67091   0.00000  Uiso   1.00
H314   H     0.57899   0.90484   0.68836   0.00000  Uiso   1.00
H315   H     0.56157   0.03266   0.20760   0.00000  Uiso   1.00
H316   H     0.68647   0.09902   0.16658   0.00000  Uiso   1.00
H317   H     0.62322   0.14057   0.13440   0.00000  Uiso   1.00
H318   H     1.04307   0.31438   1.07143   0.00000  Uiso   1.00
H319   H     1.07476   0.43037   1.02547   0.00000  Uiso   1.00
H320   H     1.05565   0.33506   0.97239   0.00000  Uiso   1.00
H321   H     0.77796   0.16751   0.02556   0.00000  Uiso   1.00
H322   H     0.87019   0.15010   0.02443   0.00000  Uiso   1.00
H323   H     0.85941   0.20401  -0.05633   0.00000  Uiso   1.00
H324   H     0.94649   0.41012   0.91021   0.00000  Uiso   1.00
H325   H     0.94006   0.47843   0.97032   0.00000  Uiso   1.00
H326   H     0.83371   0.37183   0.94779   0.00000  Uiso   1.00
H327   H     0.94262   0.07010   0.40760   0.00000  Uiso   1.00
H328   H     0.89374  -0.04434   0.46547   0.00000  Uiso   1.00
H329   H     0.86688   0.04388   0.48727   0.00000  Uiso   1.00
H330   H     0.52488  -0.11180   0.51227   0.00000  Uiso   1.00
H331   H     0.60065  -0.05061   0.57566   0.00000  Uiso   1.00
H332   H     0.64494  -0.01149   0.48736   0.00000  Uiso   1.00
H333   H     0.67910   0.17615   0.56081   0.00000  Uiso   1.00
H334   H     0.64733   0.22559   0.48160   0.00000  Uiso   1.00
H335   H     0.71676   0.17422   0.47668   0.00000  Uiso   1.00
H336   H     1.12238   0.34234   0.25674   0.00000  Uiso   1.00
H337   H     1.00164   0.27273   0.25751   0.00000  Uiso   1.00
H338   H     1.07405   0.35875   0.17716   0.00000  Uiso   1.00
H339   H     0.79491   0.06226   0.23355   0.00000  Uiso   1.00
H340   H     0.89255   0.11558   0.27868   0.00000  Uiso   1.00
H341   H     0.87020   0.19566   0.22103   0.00000  Uiso   1.00
H342   H     0.88862   0.30195   0.35667   0.00000  Uiso   1.00
H343   H     0.92634   0.21692   0.36543   0.00000  Uiso   1.00
H344   H     0.84636   0.20072   0.43319   0.00000  Uiso   1.00
H345   H     0.70361   0.07503   0.66595   0.00000  Uiso   1.00
H346   H     0.75249   0.06151   0.58624   0.00000  Uiso   1.00
H347   H     0.83549   0.15956   0.62903   0.00000  Uiso   1.00
H348   H     0.96185   0.04596   0.62915   0.00000  Uiso   1.00
H349   H     0.95096   0.04242   0.72619   0.00000  Uiso   1.00
H350   H     0.96609   0.14710   0.66404   0.00000  Uiso   1.00
H351   H     0.74881   0.89741   0.80050   0.00000  Uiso   1.00
H352   H     0.68403   0.95668   0.78636   0.00000  Uiso   1.00
H353   H     0.79707   1.02626   0.81118   0.00000  Uiso   1.00
H354   H     0.80838   0.49409   0.14490   0.00000  Uiso   1.00
H355   H     0.82819   0.46421   0.06429   0.00000  Uiso   1.00
H356   H     0.92972   0.53299   0.10839   0.00000  Uiso   1.00
H357   H     0.67034   0.58772   0.46486   0.00000  Uiso   1.00
H358   H     0.73113   0.56458   0.53391   0.00000  Uiso   1.00
H359   H     0.62811   0.56630   0.55207   0.00000  Uiso   1.00
H360   H     0.50640   0.31453   0.63525   0.00000  Uiso   1.00
H361   H     0.42749   0.32435   0.57951   0.00000  Uiso   1.00
H362   H     0.50406   0.42289   0.62426   0.00000  Uiso   1.00
H363   H     0.64929   0.44645   0.32110   0.00000  Uiso   1.00
H364   H     0.68994   0.43862   0.23282   0.00000  Uiso   1.00
H365   H     0.56884   0.38879   0.26868   0.00000  Uiso   1.00
H366   H     0.74429   0.29404   0.37882   0.00000  Uiso   1.00
H367   H     0.76102   0.39735   0.31041   0.00000  Uiso   1.00
H368   H     0.70133   0.37601   0.39801   0.00000  Uiso   1.00
H369   H     0.90037   0.42510   0.50973   0.00000  Uiso   1.00
H370   H     0.96453   0.38680   0.45043   0.00000  Uiso   1.00
H371   H     0.84113   0.31546   0.48350   0.00000  Uiso   1.00
H372   H     0.78863   0.52977   0.42173   0.00000  Uiso   1.00
H373   H     0.90706   0.61290   0.38665   0.00000  Uiso   1.00
H374   H     0.88578   0.56621   0.47076   0.00000  Uiso   1.00
H375   H     0.66289   0.26755   0.71037   0.00000  Uiso   1.00
H376   H     0.62411   0.14441   0.68552   0.00000  Uiso   1.00
H377   H     0.66153   0.16603   0.76503   0.00000  Uiso   1.00
H378   H     0.50310   0.46772   0.78336   0.00000  Uiso   1.00
H379   H     0.43775   0.49185   0.84649   0.00000  Uiso   1.00
H380   H     0.45544   0.38682   0.86571   0.00000  Uiso   1.00
H381   H     0.73482   0.55008   0.89100   0.00000  Uiso   1.00
H382   H     0.64531   0.42836   0.88157   0.00000  Uiso   1.00
H383   H     0.64291   0.47418   0.96087   0.00000  Uiso   1.00
H384   H     0.77777   0.42651   0.84801   0.00000  Uiso   1.00
H385   H     0.90145   0.50918   0.80292   0.00000  Uiso   1.00
H386   H     0.81672   0.39682   0.77349   0.00000  Uiso   1.00
H387   H     0.72698   0.38137   0.51068   0.00000  Uiso   1.00
H388   H     0.63382   0.29565   0.57811   0.00000  Uiso   1.00
H389   H     0.71224   0.41823   0.59346   0.00000  Uiso   1.00
H390   H     0.94579   0.59260   0.66149   0.00000  Uiso   1.00
H391   H     0.87635   0.62993   0.62044   0.00000  Uiso   1.00
H392   H     0.85684   0.50908   0.61383   0.00000  Uiso   1.00
H393   H     0.64694   0.49425   0.68446   0.00000  Uiso   1.00
H394   H     0.63033   0.42018   0.76918   0.00000  Uiso   1.00
H395   H     0.66451   0.39712   0.69219   0.00000  Uiso   1.00
H396   H     0.89097   0.56348   0.22459   0.00000  Uiso   1.00
H397   H     0.82885   0.57702   0.29800   0.00000  Uiso   1.00
H398   H     0.95697   0.66087   0.26956   0.00000  Uiso   1.00
H399   H     0.72359   0.98387   0.07955   0.00000  Uiso   1.00
H400   H     0.81785   0.95793   0.06658   0.00000  Uiso   1.00
H401   H     0.81204   1.02943   0.13453   0.00000  Uiso   1.00
H402   H     0.58994   0.78910   0.28361   0.00000  Uiso   1.00
H403   H     0.57336   0.86301   0.20918   0.00000  Uiso   1.00
H404   H     0.66378   0.92373   0.26352   0.00000  Uiso   1.00
H405   H     0.89411   0.63293   0.92754   0.00000  Uiso   1.00
H406   H     0.95885   0.62661   0.99453   0.00000  Uiso   1.00
H407   H     1.00684   0.74029   0.93993   0.00000  Uiso   1.00
H408   H     0.96900   0.87844   0.03422   0.00000  Uiso   1.00
H409   H     0.84293   0.83348   0.05828   0.00000  Uiso   1.00
H410   H     0.89434   0.85548  -0.03857   0.00000  Uiso   1.00
H411   H     0.73823   0.54548   1.03860   0.00000  Uiso   1.00
H412   H     0.72786   0.63430   0.97284   0.00000  Uiso   1.00
H413   H     0.70625   0.63176   1.06793   0.00000  Uiso   1.00
H414   H     0.77728   0.76175   0.40905   0.00000  Uiso   1.00
H415   H     0.80041   0.69564   0.34809   0.00000  Uiso   1.00
H416   H     0.68892   0.69779   0.36314   0.00000  Uiso   1.00
H417   H     0.81069   0.81064   0.85214   0.00000  Uiso   1.00
H418   H     0.89349   0.87113   0.76821   0.00000  Uiso   1.00
H419   H     0.90020   0.78076   0.83520   0.00000  Uiso   1.00
loop_
_geom_bond_atom_site_label_1
_geom_bond_atom_site_label_2
_geom_bond_distance
_geom_bond_site_symmetry_2
_ccdc_geom_bond_type
Si1    O54     1.623   .     S
Si1    O82     1.641   .     S
Si1    O69     1.661   1_545 S
Si1    O71     1.605   1_545 S
Si2    C52     1.914   .     S
Si2    O58     1.614   .     S
Si2    C53     1.875   1_455 S
Si2    C138    1.869   1_455 S
Si3    O54     1.638   .     S
Si3    C55     1.831   .     S
Si3    C56     1.850   1_554 S
Si3    C57     1.857   1_554 S
Si4    O59     1.638   .     S
Si4    O88     1.611   .     S
Si4    O77     1.576   1_545 S
Si4    O81     1.657   1_545 S
Si5    O58     1.581   .     S
Si5    O59     1.619   .     S
Si5    O65     1.638   .     S
Si5    O83     1.623   .     S
Si6    C60     1.883   .     S
Si6    C61     1.842   .     S
Si6    C62     1.834   .     S
Si6    O89     1.543   .     S
Si7    C63     1.862   .     S
Si7    O67     1.606   .     S
Si7    O149    1.618   1_455 S
Si7    O155    1.622   1_455 S
Si8    C64     1.785   .     S
Si8    O65     1.651   .     S
Si8    C66     1.844   .     S
Si8    O68     1.644   .     S
Si9    O67     1.623   .     S
Si9    O68     1.608   .     S
Si9    O75     1.661   .     S
Si9    O97     1.623   .     S
Si10   O69     1.667   .     S
Si10   O79     1.609   .     S
Si10   O170    1.609   1_455 S
Si10   O181    1.588   1_455 S
Si11   C70     1.884   .     S
Si11   O71     1.639   .     S
Si11   C72     1.889   1_554 S
Si11   C73     1.958   1_554 S
Si12   C74     1.912   .     S
Si12   O75     1.680   .     S
Si12   O80     1.663   .     S
Si12   O121    1.556   .     S
Si13   C76     1.892   .     S
Si13   O77     1.616   .     S
Si13   C78     1.845   1_455 S
Si13   O188    1.607   1_455 S
Si14   O79     1.601   .     S
Si14   O80     1.682   .     S
Si14   O81     1.619   .     S
Si14   O117    1.564   .     S
Si15   O82     1.674   .     S
Si15   O83     1.654   .     S
Si15   O90     1.597   .     S
Si15   O94     1.646   .     S
Si16   C84     1.803   .     S
Si16   O95     1.630   .     S
Si16   C85     1.890   1_554 S
Si16   C86     1.872   1_554 S
Si17   O91     1.577   .     S
Si17   O134    1.545   .     S
Si17   C87     1.891   1_545 S
Si17   O122    1.574   1_545 S
Si18   O88     1.625   .     S
Si18   O89     1.579   .     S
Si18   O92     1.595   .     S
Si18   O99     1.634   .     S
Si19   O90     1.676   .     S
Si19   O91     1.604   .     S
Si19   O100    1.627   .     S
Si19   O129    1.591   .     S
Si20   O92     1.580   .     S
Si20   C93     1.873   .     S
Si20   O104    1.553   .     S
Si20   O137    1.581   .     S
Si21   O94     1.592   .     S
Si21   O95     1.600   .     S
Si21   O98     1.616   .     S
Si21   O150    1.653   .     S
Si22   C96     1.781   .     S
Si22   O97     1.655   .     S
Si22   O101    1.563   .     S
Si22   C110    1.759   .     S
Si23   O98     1.582   .     S
Si23   O112    1.608   .     S
Si23   O107    1.622   1_554 S
Si23   O163    1.641   1_554 S
Si24   O99     1.649   .     S
Si24   O100    1.547   .     S
Si24   O102    1.556   .     S
Si24   O152    1.595   .     S
Si25   O101    1.610   .     S
Si25   O102    1.634   .     S
Si25   O119    1.598   .     S
Si25   O151    1.602   .     S
Si26   C103    1.873   .     S
Si26   O104    1.623   .     S
Si26   C105    1.859   .     S
Si26   C160    1.797   .     S
Si27   C106    1.893   .     S
Si27   O107    1.573   .     S
Si27   C108    1.886   .     S
Si27   C109    1.852   .     S
Si28   C111    1.858   .     S
Si28   O112    1.609   .     S
Si28   C113    1.878   .     S
Si28   O171    1.597   .     S
Si29   C114    1.851   .     S
Si29   C115    1.912   .     S
Si29   C116    1.842   .     S
Si29   O117    1.582   .     S
Si30   C118    1.854   .     S
Si30   O119    1.575   .     S
Si30   C120    1.912   .     S
Si30   O178    1.603   .     S
Si31   O121    1.581   .     S
Si31   O122    1.615   .     S
Si31   C123    1.836   .     S
Si31   C124    1.842   .     S
Si32   C125    1.933   .     S
Si32   C126    1.844   .     S
Si32   C127    1.880   .     S
Si32   O180    1.602   .     S
Si33   C128    1.868   .     S
Si33   O129    1.610   .     S
Si33   O140    1.622   .     S
Si33   O146    1.582   .     S
Si34   C131    1.831   .     S
Si34   O147    1.600   .     S
Si34   C130    1.782   1_554 S
Si34   C132    1.859   1_554 S
Si35   C133    1.896   .     S
Si35   O141    1.604   .     S
Si35   O179    1.665   1_545 S
Si35   O184    1.618   1_545 S
Si36   O134    1.550   .     S
Si36   C135    1.864   .     S
Si36   C136    1.863   .     S
Si36   O137    1.622   .     S
Si37   C139    1.894   .     S
Si37   O140    1.625   .     S
Si37   O141    1.565   .     S
Si37   C142    1.894   .     S
Si38   C143    1.879   .     S
Si38   C144    1.849   .     S
Si38   C145    1.853   1_545 S
Si38   O191    1.603   1_545 S
Si39   O146    1.630   .     S
Si39   O147    1.595   .     S
Si39   C148    1.878   .     S
Si39   O149    1.614   .     S
Si40   O150    1.620   .     S
Si40   O151    1.598   .     S
Si40   C156    1.787   .     S
Si40   O168    1.666   .     S
Si41   O152    1.595   .     S
Si41   C153    1.908   .     S
Si41   C154    1.912   .     S
Si41   C165    1.914   .     S
Si42   O155    1.646   .     S
Si42   C157    1.837   .     S
Si42   C158    1.854   .     S
Si42   C159    1.855   .     S
Si43   C161    1.875   .     S
Si43   C162    1.799   .     S
Si43   O163    1.621   .     S
Si43   O185    1.634   .     S
Si44   C164    1.861   .     S
Si44   C166    1.901   .     S
Si44   C167    1.843   .     S
Si44   O186    1.599   .     S
Si45   O168    1.642   .     S
Si45   C169    1.839   .     S
Si45   O170    1.639   .     S
Si45   O175    1.571   .     S
Si46   O171    1.620   .     S
Si46   C172    1.843   .     S
Si46   C173    1.908   .     S
Si46   O182    1.608   .     S
Si47   O175    1.590   .     S
Si47   C176    1.891   .     S
Si47   C174    1.921   1_554 S
Si47   C177    1.806   1_554 S
Si48   O178    1.616   .     S
Si48   O179    1.637   .     S
Si48   O180    1.610   .     S
Si48   O189    1.558   .     S
Si49   O181    1.641   .     S
Si49   O182    1.649   .     S
Si49   C183    1.862   .     S
Si49   O184    1.572   .     S
Si50   O185    1.631   .     S
Si50   O186    1.602   .     S
Si50   C187    1.910   .     S
Si50   O190    1.633   .     S
Si51   O188    1.612   .     S
Si51   O189    1.626   .     S
Si51   O190    1.617   .     S
Si51   O191    1.584   .     S
C52    H192    1.091   .     S
C52    H193    1.113   .     S
C52    H194    1.092   .     S
C53    H195    1.089   .     S
C53    H196    1.175   .     S
C53    H197    1.052   .     S
C53    Si2     1.875   1_655 S
C55    H198    1.070   .     S
C55    H199    1.155   .     S
C55    H200    1.091   .     S
C56    H201    1.104   .     S
C56    H202    1.148   .     S
C56    H203    1.133   .     S
C56    Si3     1.850   1_556 S
C57    H204    1.110   .     S
C57    H205    1.130   .     S
C57    H206    1.091   .     S
C57    Si3     1.857   1_556 S
C60    H207    1.115   .     S
C60    H208    1.106   .     S
C60    H209    1.093   .     S
C61    H210    1.147   .     S
C61    H211    1.170   .     S
C61    H212    1.096   .     S
C62    H213    1.097   .     S
C62    H214    1.046   .     S
C62    H215    1.075   .     S
C63    H216    1.118   .     S
C63    H217    1.057   .     S
C63    H218    1.088   .     S
C64    H219    1.097   .     S
C64    H220    1.108   .     S
C64    H221    1.093   .     S
C66    H222    1.055   .     S
C66    H223    1.062   .     S
C66    H224    1.113   .     S
O69    Si1     1.661   1_565 S
C70    H225    1.115   .     S
C70    H226    1.145   .     S
C70    H227    1.046   .     S
O71    Si1     1.605   1_565 S
C72    H228    1.095   .     S
C72    H229    1.138   .     S
C72    H230    1.119   .     S
C72    Si11    1.889   1_556 S
C73    H231    1.165   .     S
C73    H232    1.145   .     S
C73    H233    1.087   .     S
C73    Si11    1.958   1_556 S
C74    H234    1.123   .     S
C74    H235    1.095   .     S
C74    H236    1.090   .     S
C76    H237    1.092   .     S
C76    H238    1.080   .     S
C76    H239    1.028   .     S
O77    Si4     1.576   1_565 S
C78    H240    1.110   .     S
C78    H241    1.075   .     S
C78    H242    1.114   .     S
C78    Si13    1.845   1_655 S
O81    Si4     1.657   1_565 S
C84    H243    1.120   .     S
C84    H244    1.074   .     S
C84    H245    1.122   .     S
C85    H246    1.075   .     S
C85    H247    1.130   .     S
C85    H248    1.082   .     S
C85    Si16    1.890   1_556 S
C86    H249    1.110   .     S
C86    H250    1.085   .     S
C86    H251    1.079   .     S
C86    Si16    1.872   1_556 S
C87    H252    1.105   .     S
C87    H253    1.098   .     S
C87    H254    1.068   .     S
C87    Si17    1.891   1_565 S
C93    H255    1.044   .     S
C93    H256    1.104   .     S
C93    H257    1.100   .     S
C96    H258    1.097   .     S
C96    H259    1.105   .     S
C96    H260    1.114   .     S
C103   H261    1.162   .     S
C103   H262    1.136   .     S
C103   H263    1.057   .     S
C105   H264    1.116   .     S
C105   H265    1.107   .     S
C105   H266    1.111   .     S
C106   H267    1.122   .     S
C106   H268    1.150   .     S
C106   H269    1.141   .     S
O107   Si23    1.622   1_556 S
C108   H270    1.072   .     S
C108   H271    1.071   .     S
C108   H272    1.104   .     S
C109   H273    1.133   .     S
C109   H274    1.107   .     S
C109   H275    1.072   .     S
C110   H276    1.114   .     S
C110   H277    1.093   .     S
C110   H278    1.072   .     S
C111   H279    1.113   .     S
C111   H280    1.091   .     S
C111   H281    1.147   .     S
C113   H282    1.099   .     S
C113   H283    1.077   .     S
C113   H284    1.055   .     S
C114   H285    1.089   .     S
C114   H286    1.134   .     S
C114   H287    1.149   .     S
C115   H288    1.096   .     S
C115   H289    1.109   .     S
C115   H290    1.110   .     S
C116   H291    1.115   .     S
C116   H292    1.107   .     S
C116   H293    1.041   .     S
C118   H294    1.050   .     S
C118   H295    1.074   .     S
C118   H296    1.164   .     S
C120   H297    1.067   .     S
C120   H298    1.078   .     S
C120   H299    1.131   .     S
O122   Si17    1.574   1_565 S
C123   H300    1.089   .     S
C123   H301    1.146   .     S
C123   H302    1.154   .     S
C124   H303    1.093   .     S
C124   H304    1.103   .     S
C124   H305    1.139   .     S
C125   H306    1.127   .     S
C125   H307    1.105   .     S
C125   H308    1.073   .     S
C126   H309    1.132   .     S
C126   H310    1.068   .     S
C126   H311    1.071   .     S
C127   H312    1.030   .     S
C127   H313    1.104   .     S
C127   H314    1.141   .     S
C128   H315    1.130   .     S
C128   H316    1.099   .     S
C128   H317    1.073   .     S
C130   H318    1.085   .     S
C130   H319    1.081   .     S
C130   H320    1.167   .     S
C130   Si34    1.782   1_556 S
C131   H321    1.088   .     S
C131   H322    1.091   .     S
C131   H323    1.105   .     S
C132   H324    1.088   .     S
C132   H325    1.097   .     S
C132   H326    1.088   .     S
C132   Si34    1.859   1_556 S
C133   H327    1.075   .     S
C133   H328    1.164   .     S
C133   H329    1.101   .     S
C135   H330    1.093   .     S
C135   H331    1.084   .     S
C135   H332    1.122   .     S
C136   H333    1.132   .     S
C136   H334    1.098   .     S
C136   H335    1.083   .     S
C138   H336    1.114   .     S
C138   H337    1.112   .     S
C138   H338    1.123   .     S
C138   Si2     1.869   1_655 S
C139   H339    1.087   .     S
C139   H340    1.074   .     S
C139   H341    1.063   .     S
C142   H342    1.055   .     S
C142   H343    1.122   .     S
C142   H344    1.098   .     S
C143   H345    1.176   .     S
C143   H346    1.079   .     S
C143   H347    1.143   .     S
C144   H348    1.168   .     S
C144   H349    1.101   .     S
C144   H350    1.157   .     S
C145   H351    1.115   .     S
C145   H352    1.044   .     S
C145   H353    1.155   .     S
C145   Si38    1.853   1_565 S
C148   H354    1.148   .     S
C148   H355    1.116   .     S
C148   H356    1.081   .     S
O149   Si7     1.618   1_655 S
C153   H357    1.083   .     S
C153   H358    1.121   .     S
C153   H359    1.077   .     S
C154   H360    1.083   .     S
C154   H361    1.040   .     S
C154   H362    1.138   .     S
O155   Si7     1.622   1_655 S
C156   H363    1.067   .     S
C156   H364    1.072   .     S
C156   H365    1.090   .     S
C157   H366    1.106   .     S
C157   H367    1.132   .     S
C157   H368    1.162   .     S
C158   H369    1.101   .     S
C158   H370    1.095   .     S
C158   H371    1.123   .     S
C159   H372    1.122   .     S
C159   H373    1.040   .     S
C159   H374    1.096   .     S
C160   H375    1.132   .     S
C160   H376    1.096   .     S
C160   H377    1.118   .     S
C161   H378    1.093   .     S
C161   H379    1.161   .     S
C161   H380    1.108   .     S
C162   H381    1.046   .     S
C162   H382    1.088   .     S
C162   H383    1.090   .     S
O163   Si23    1.641   1_556 S
C164   H384    1.082   .     S
C164   H385    1.147   .     S
C164   H386    1.078   .     S
C165   H387    1.092   .     S
C165   H388    1.067   .     S
C165   H389    1.105   .     S
C166   H390    1.100   .     S
C166   H391    1.081   .     S
C166   H392    1.177   .     S
C167   H393    1.121   .     S
C167   H394    1.068   .     S
C167   H395    1.043   .     S
C169   H396    1.073   .     S
C169   H397    1.123   .     S
C169   H398    1.144   .     S
O170   Si10    1.609   1_655 S
C172   H399    1.092   .     S
C172   H400    1.125   .     S
C172   H401    1.121   .     S
C173   H402    1.128   .     S
C173   H403    1.086   .     S
C173   H404    1.137   .     S
C174   H405    1.116   .     S
C174   H406    1.150   .     S
C174   H407    1.090   .     S
C174   Si47    1.921   1_556 S
C176   H408    1.109   .     S
C176   H409    1.110   .     S
C176   H410    1.154   .     S
C177   H411    1.144   .     S
C177   H412    1.121   .     S
C177   H413    1.148   .     S
C177   Si47    1.806   1_556 S
O179   Si35    1.665   1_565 S
O181   Si10    1.588   1_655 S
C183   H414    1.155   .     S
C183   H415    1.116   .     S
C183   H416    1.111   .     S
O184   Si35    1.618   1_565 S
C187   H417    1.107   .     S
C187   H418    1.150   .     S
C187   H419    1.089   .     S
O188   Si13    1.607   1_655 S
O191   Si38    1.603   1_565 S
