data_333-15-11-10-15-30-1
_audit_creation_date              2025-03-07
_audit_creation_method            'Materials Studio'
_symmetry_space_group_name_H-M    'P1'
_symmetry_Int_Tables_number       1
_symmetry_cell_setting            triclinic
loop_
_symmetry_equiv_pos_as_xyz
  x,y,z
_cell_length_a                    15.6975
_cell_length_b                    16.7663
_cell_length_c                    19.0791
_cell_angle_alpha                 90.9095
_cell_angle_beta                  85.5065
_cell_angle_gamma                 120.3971
loop_
_atom_site_label
_atom_site_type_symbol
_atom_site_fract_x
_atom_site_fract_y
_atom_site_fract_z
_atom_site_U_iso_or_equiv
_atom_site_adp_type
_atom_site_occupancy
Si1    Si    0.20060  -0.04784   0.11729   0.00000  Uiso   1.00
Si2    Si   -0.03241  -0.07670   0.54726   0.00000  Uiso   1.00
Si3    Si    0.12077   0.10350   0.25965   0.00000  Uiso   1.00
Si4    Si    0.17737  -0.01893   0.77957   0.00000  Uiso   1.00
Si5    Si   -0.08869   0.10284   0.86556   0.00000  Uiso   1.00
Si6    Si    0.11323   0.04446   0.65803   0.00000  Uiso   1.00
Si7    Si    0.01533   0.30979   0.10623   0.00000  Uiso   1.00
Si8    Si    0.01192   0.59228   0.20283   0.00000  Uiso   1.00
Si9    Si    0.13844   0.49032   0.01400   0.00000  Uiso   1.00
Si10   Si    0.03972   0.51718   0.87993   0.00000  Uiso   1.00
Si11   Si    0.29491   0.61376   0.71170   0.00000  Uiso   1.00
Si12   Si    0.16620   0.67666   0.07843   0.00000  Uiso   1.00
Si13   Si    0.19267   0.84059  -0.01178   0.00000  Uiso   1.00
Si14   Si    0.32088   0.74332   0.44452   0.00000  Uiso   1.00
Si15   Si    0.28090   0.84249   0.32429   0.00000  Uiso   1.00
Si16   Si    0.19294   0.69502   0.80711   0.00000  Uiso   1.00
Si17   Si    0.02288   0.84175   0.90651   0.00000  Uiso   1.00
Si18   Si    0.18744   0.82399   0.70095   0.00000  Uiso   1.00
Si19   Si    0.46347  -0.01039   0.07450   0.00000  Uiso   1.00
Si20   Si    0.31019   0.14497   0.16445   0.00000  Uiso   1.00
Si21   Si    0.43863   0.10685  -0.03020   0.00000  Uiso   1.00
Si22   Si    0.32356   0.17297   0.58836   0.00000  Uiso   1.00
Si23   Si    0.47876   0.02914   0.75491   0.00000  Uiso   1.00
Si24   Si    0.32069   0.14235   0.87149   0.00000  Uiso   1.00
Si25   Si    0.48310   0.19583   0.68583   0.00000  Uiso   1.00
Si26   Si    0.45980   0.27746   0.04547   0.00000  Uiso   1.00
Si27   Si    0.48419   0.45542  -0.00194   0.00000  Uiso   1.00
Si28   Si    0.27379   0.29486   0.50608   0.00000  Uiso   1.00
Si29   Si    0.50234   0.33191   0.79819   0.00000  Uiso   1.00
Si30   Si    0.31026   0.47423   0.94122   0.00000  Uiso   1.00
Si31   Si    0.53492   0.48969   0.70582   0.00000  Uiso   1.00
Si32   Si    0.43540   0.50229   0.13932   0.00000  Uiso   1.00
Si33   Si    0.33788   0.81593   0.16978   0.00000  Uiso   1.00
Si34   Si    0.50536   0.87224  -0.03395   0.00000  Uiso   1.00
Si35   Si    0.32972   0.87679   0.56246   0.00000  Uiso   1.00
Si36   Si    0.51895   0.82565   0.22371   0.00000  Uiso   1.00
Si37   Si    0.35618   0.87177   0.87271   0.00000  Uiso   1.00
Si38   Si    0.53107   0.97218   0.61164   0.00000  Uiso   1.00
Si39   Si    0.79830   0.13958   0.33191   0.00000  Uiso   1.00
Si40   Si    0.63250   0.28871   0.56097   0.00000  Uiso   1.00
Si41   Si    0.96652   0.30270   0.40197   0.00000  Uiso   1.00
Si42   Si    0.75053  -0.04664   0.77986   0.00000  Uiso   1.00
Si43   Si    0.61450   0.14295   0.86762   0.00000  Uiso   1.00
Si44   Si    0.84260   0.48863  -0.04288   0.00000  Uiso   1.00
Si45   Si    0.89689   0.63722   0.31352   0.00000  Uiso   1.00
Si46   Si    0.99635   0.42725   0.73536   0.00000  Uiso   1.00
Si47   Si    0.66919   0.49070   0.89342   0.00000  Uiso   1.00
Si48   Si    0.79532   0.71261   0.10022   0.00000  Uiso   1.00
Si49   Si    0.86151   0.86558  -0.00753   0.00000  Uiso   1.00
Si50   Si    0.85322   0.67908   0.82542   0.00000  Uiso   1.00
Si51   Si    0.68621   0.84572   0.91605   0.00000  Uiso   1.00
C52    C     0.10194  -0.02347   0.09309   0.00000  Uiso   1.00
C53    C     0.14283   0.87589   0.19356   0.00000  Uiso   1.00
C54    C     0.04376  -0.09067   0.47551   0.00000  Uiso   1.00
C55    C     0.92436   0.00182   0.52014   0.00000  Uiso   1.00
C56    C     0.86628  -0.19981   0.56694   0.00000  Uiso   1.00
C57    C    -0.01407   0.03607   0.23748   0.00000  Uiso   1.00
C58    C     0.14220   0.05109   0.33391   0.00000  Uiso   1.00
C59    C     0.15209   0.22019   0.28228   0.00000  Uiso   1.00
C60    C    -0.01545   0.04190   0.85472   0.00000  Uiso   1.00
C61    C    -0.02048   0.21526   0.82370   0.00000  Uiso   1.00
C62    C     0.87019   0.11116   0.96085   0.00000  Uiso   1.00
O63    O     0.03620  -0.04054   0.61238   0.00000  Uiso   1.00
O64    O     0.12077   0.00454   0.72991   0.00000  Uiso   1.00
C65    C     0.07991   0.13674   0.67053   0.00000  Uiso   1.00
C66    C    -0.12188   0.24650   0.09765   0.00000  Uiso   1.00
C67    C     0.06899   0.23704   0.07547   0.00000  Uiso   1.00
C68    C     0.03375   0.33396   0.20062   0.00000  Uiso   1.00
C69    C     0.09790   0.57179   0.25276   0.00000  Uiso   1.00
C70    C     0.90473   0.47878   0.18479   0.00000  Uiso   1.00
O71    O     0.06471   0.41062   0.07036   0.00000  Uiso   1.00
O72    O     0.08144   0.48135   0.94255   0.00000  Uiso   1.00
C73    C     0.27905   0.61894   0.61742   0.00000  Uiso   1.00
C74    C     0.27413   0.49186   0.72824   0.00000  Uiso   1.00
C75    C     0.41904   0.71219   0.72609   0.00000  Uiso   1.00
O76    O     0.07118   0.64456   0.13131   0.00000  Uiso   1.00
O77    O     0.16778   0.58922   0.04939   0.00000  Uiso   1.00
O78    O     0.16937   0.73876   0.01311   0.00000  Uiso   1.00
O79    O     0.22692   0.90690   0.05573   0.00000  Uiso   1.00
C80    C     0.19702   0.63752   0.45051   0.00000  Uiso   1.00
C81    C     0.42983   0.72072   0.44327   0.00000  Uiso   1.00
C82    C     0.15016   0.80492   0.36075   0.00000  Uiso   1.00
O83    O     0.32773   0.80007   0.37458   0.00000  Uiso   1.00
C84    C     0.35600   0.97100   0.33372   0.00000  Uiso   1.00
O85    O     0.10886   0.62709   0.86544   0.00000  Uiso   1.00
O86    O     0.21607   0.62574   0.76212   0.00000  Uiso   1.00
O87    O     0.09323   0.82586   0.95567   0.00000  Uiso   1.00
O88    O     0.09581   0.90992   0.84149   0.00000  Uiso   1.00
C89    C     0.07503   0.79229   0.65374   0.00000  Uiso   1.00
O90    O     0.15427   0.74500   0.75891   0.00000  Uiso   1.00
O91    O     0.21574   0.92134   0.73643   0.00000  Uiso   1.00
O92    O     0.28999   0.04569   0.13747   0.00000  Uiso   1.00
C93    C     0.39579   0.19183   0.23730   0.00000  Uiso   1.00
O94    O     0.19967   0.12398   0.19339   0.00000  Uiso   1.00
O95    O     0.41394   0.03905   0.03648   0.00000  Uiso   1.00
C96    C     0.36832   0.14148   0.51013   0.00000  Uiso   1.00
O97    O     0.21888   0.08736   0.61202   0.00000  Uiso   1.00
O98    O     0.26916   0.07693   0.80253   0.00000  Uiso   1.00
O99    O     0.35333   0.08371   0.92004   0.00000  Uiso   1.00
C100   C     0.21332   0.13574   0.92434   0.00000  Uiso   1.00
O101   O     0.39584   0.20380   0.64882   0.00000  Uiso   1.00
O102   O     0.44115   0.09511   0.72180   0.00000  Uiso   1.00
O103   O     0.36488   0.21636   0.10066   0.00000  Uiso   1.00
O104   O     0.47982   0.21086  -0.00596   0.00000  Uiso   1.00
C105   C     0.56772   0.34221   0.09945   0.00000  Uiso   1.00
O106   O     0.43600   0.34465   0.00379   0.00000  Uiso   1.00
O107   O     0.31319   0.26062   0.56680   0.00000  Uiso   1.00
C108   C     0.15695   0.19347   0.48361   0.00000  Uiso   1.00
C109   C     0.24478   0.38488   0.53879   0.00000  Uiso   1.00
C110   C     0.36705   0.34120   0.43226   0.00000  Uiso   1.00
O111   O     0.40660   0.25309   0.85307   0.00000  Uiso   1.00
O112   O     0.52590   0.26956   0.74868   0.00000  Uiso   1.00
C113   C     0.24027   0.35849   0.90055   0.00000  Uiso   1.00
O114   O     0.41442   0.48903   0.96391   0.00000  Uiso   1.00
C115   C     0.33674   0.56454   0.88155   0.00000  Uiso   1.00
O116   O     0.23501   0.47977   1.00208   0.00000  Uiso   1.00
C117   C     0.46229   0.47312   0.63016   0.00000  Uiso   1.00
O118   O     0.47906   0.39543   0.75354   0.00000  Uiso   1.00
C119   C     0.54810   0.58224   0.76246   0.00000  Uiso   1.00
C120   C     0.66805   0.52194   0.67776   0.00000  Uiso   1.00
C121   C     0.30733   0.40188   0.14792   0.00000  Uiso   1.00
O122   O     0.49632   0.49202   0.07385   0.00000  Uiso   1.00
C123   C     0.49366   0.50122   0.22303   0.00000  Uiso   1.00
O124   O     0.26518   0.74122   0.11530   0.00000  Uiso   1.00
O125   O     0.39422   0.91581   0.13499   0.00000  Uiso   1.00
O126   O     0.28069   0.82001   0.24153   0.00000  Uiso   1.00
C127   C     0.41509   0.60177   0.12904   0.00000  Uiso   1.00
C128   C     0.42732   0.75498   0.00528   0.00000  Uiso   1.00
O129   O     0.50890   0.94231   0.02189   0.00000  Uiso   1.00
O130   O     0.32140   0.79504   0.51510   0.00000  Uiso   1.00
C131   C     0.25421   0.91386   0.52427   0.00000  Uiso   1.00
O132   O     0.27853   0.83909   0.63981   0.00000  Uiso   1.00
O133   O     0.41726   0.79090   0.18992   0.00000  Uiso   1.00
C134   C     0.51639   0.73116   0.27384   0.00000  Uiso   1.00
C135   C     0.54194   0.92119   0.28234   0.00000  Uiso   1.00
C136   C     0.62694   0.88206   0.15720   0.00000  Uiso   1.00
O137   O     0.29001   0.76859   0.84324   0.00000  Uiso   1.00
O138   O     0.45565   0.88660   0.90075   0.00000  Uiso   1.00
O139   O     0.39115   0.95419   0.81118   0.00000  Uiso   1.00
O140   O     0.28641   0.88708   0.93098   0.00000  Uiso   1.00
O141   O     0.43966   0.95540   0.56955   0.00000  Uiso   1.00
C142   C     0.54726   0.87422   0.59421   0.00000  Uiso   1.00
O143   O     0.49997   0.97306   0.69496   0.00000  Uiso   1.00
C144   C     0.65357   1.07917   0.58286   0.00000  Uiso   1.00
C145   C     0.56139   0.08264   0.11787   0.00000  Uiso   1.00
C146   C     0.80355   0.08311   0.24812   0.00000  Uiso   1.00
C147   C     0.73333   0.20251   0.30450   0.00000  Uiso   1.00
C148   C     0.73311   0.04406   0.40063   0.00000  Uiso   1.00
C149   C     0.62545   0.22281   0.48184   0.00000  Uiso   1.00
C150   C     0.76543   0.34964   0.58129   0.00000  Uiso   1.00
C151   C     0.59281   0.36772   0.53001   0.00000  Uiso   1.00
O152   O     0.56683   0.22111   0.62881   0.00000  Uiso   1.00
C153   C     1.10315   0.36950   0.37678   0.00000  Uiso   1.00
O154   O     0.90648   0.21922   0.35243   0.00000  Uiso   1.00
C155   C     0.93258   0.24610   0.49236   0.00000  Uiso   1.00
C156   C     0.91674   0.38335   0.40077   0.00000  Uiso   1.00
C157   C     0.64058  -0.04231   0.76029   0.00000  Uiso   1.00
O158   O     0.81551   0.04338   0.82202   0.00000  Uiso   1.00
C159   C     0.80820   0.93571   0.69676   0.00000  Uiso   1.00
O160   O     0.57730   0.09562   0.79647   0.00000  Uiso   1.00
C161   C     0.71625   0.13900   0.89806   0.00000  Uiso   1.00
O162   O     0.52156   0.09765   0.92240   0.00000  Uiso   1.00
O163   O     0.92666   0.49386   0.89744   0.00000  Uiso   1.00
C164   C     0.81549   0.39273   0.02169   0.00000  Uiso   1.00
O165   O     0.97083   0.64680   0.25031   0.00000  Uiso   1.00
C166   C     0.76640   0.56695   0.29495   0.00000  Uiso   1.00
C167   C     0.92472   0.59971   0.39807   0.00000  Uiso   1.00
C168   C     0.90613   0.75209   0.33224   0.00000  Uiso   1.00
C169   C     0.65935   0.26643   0.85914   0.00000  Uiso   1.00
C170   C     0.86363   0.34468   0.76562   0.00000  Uiso   1.00
C171   C     1.04153   0.35334   0.68841   0.00000  Uiso   1.00
C172   C     1.00512   0.51612   0.67062   0.00000  Uiso   1.00
O173   O     1.04798   0.46630   0.80715   0.00000  Uiso   1.00
O174   O     0.60327   0.40904   0.83913   0.00000  Uiso   1.00
O175   O     0.73638   0.45962   0.93005   0.00000  Uiso   1.00
O176   O     0.59016   0.49924   0.95078   0.00000  Uiso   1.00
C177   C     0.72271   0.58162   0.09202   0.00000  Uiso   1.00
C178   C     0.91251   0.60674  -0.00254   0.00000  Uiso   1.00
C179   C     0.92468   0.75589   0.12696   0.00000  Uiso   1.00
C180   C     0.72291   0.74006   0.16781   0.00000  Uiso   1.00
O181   O     0.96402   0.88374   0.95171   0.00000  Uiso   1.00
O182   O     0.80178   0.76357   0.02688   0.00000  Uiso   1.00
C183   C     0.89175   0.95206   0.06771   0.00000  Uiso   1.00
O184   O     0.74338   0.59569   0.86076   0.00000  Uiso   1.00
C185   C     0.89742   0.62395   0.76065   0.00000  Uiso   1.00
C186   C     0.82713   0.75816   0.77885   0.00000  Uiso   1.00
O187   O     0.93379   0.73935   0.88294   0.00000  Uiso   1.00
C188   C     0.61220   0.71915   0.93463   0.00000  Uiso   1.00
O189   O     0.79009   0.88117   0.94775   0.00000  Uiso   1.00
O190   O     0.71159   0.87147   0.83454   0.00000  Uiso   1.00
O191   O     0.61446   0.88540   0.94310   0.00000  Uiso   1.00
H192   H     0.14340   0.04997   0.07784   0.00000  Uiso   1.00
H193   H     0.05680  -0.03364   0.13898   0.00000  Uiso   1.00
H194   H     0.05313  -0.07195   0.05187   0.00000  Uiso   1.00
H195   H     0.19354   0.90140   0.23349   0.00000  Uiso   1.00
H196   H     0.12094   0.80465   0.18421   0.00000  Uiso   1.00
H197   H     0.07992   0.87928   0.21866   0.00000  Uiso   1.00
H198   H     0.12569  -0.03306   0.47253   0.00000  Uiso   1.00
H199   H     0.01190  -0.09566   0.42605   0.00000  Uiso   1.00
H200   H     0.04287  -0.15475   0.47804   0.00000  Uiso   1.00
H201   H     0.95245   0.06333   0.55497   0.00000  Uiso   1.00
H202   H     0.84368  -0.04401   0.52199   0.00000  Uiso   1.00
H203   H     0.94647   0.02020   0.46228   0.00000  Uiso   1.00
H204   H     0.89317  -0.24802   0.56333   0.00000  Uiso   1.00
H205   H     0.81693  -0.20855   0.52697   0.00000  Uiso   1.00
H206   H     0.82873  -0.19670   0.61809   0.00000  Uiso   1.00
H207   H    -0.03608   0.06207   0.19362   0.00000  Uiso   1.00
H208   H    -0.05168   0.04304   0.28663   0.00000  Uiso   1.00
H209   H    -0.03642  -0.03602   0.22637   0.00000  Uiso   1.00
H210   H     0.09375   0.04972   0.38370   0.00000  Uiso   1.00
H211   H     0.22084   0.09871   0.34517   0.00000  Uiso   1.00
H212   H     0.14492  -0.01310   0.31904   0.00000  Uiso   1.00
H213   H     0.22005   0.25357   0.31027   0.00000  Uiso   1.00
H214   H     0.08593   0.21403   0.31543   0.00000  Uiso   1.00
H215   H     0.16307   0.25756   0.23370   0.00000  Uiso   1.00
H216   H     0.04232   0.08116   0.81511   0.00000  Uiso   1.00
H217   H    -0.06079  -0.02656   0.83669   0.00000  Uiso   1.00
H218   H     0.01712   0.04581   0.90315   0.00000  Uiso   1.00
H219   H    -0.01280   0.26464   0.86311   0.00000  Uiso   1.00
H220   H    -0.06674   0.20395   0.78151   0.00000  Uiso   1.00
H221   H     0.05829   0.23108   0.80425   0.00000  Uiso   1.00
H222   H     0.80073   0.05532   0.98467   0.00000  Uiso   1.00
H223   H     0.87310   0.17926   0.96577   0.00000  Uiso   1.00
H224   H     0.93081   0.11518   0.98890   0.00000  Uiso   1.00
H225   H     0.13204   0.19473   0.69805   0.00000  Uiso   1.00
H226   H     0.01251   0.10324   0.70260   0.00000  Uiso   1.00
H227   H     0.07369   0.15255   0.61861   0.00000  Uiso   1.00
H228   H    -0.15636   0.16972   0.10665   0.00000  Uiso   1.00
H229   H    -0.13722   0.26640   0.04540   0.00000  Uiso   1.00
H230   H    -0.16377   0.26566   0.13344   0.00000  Uiso   1.00
H231   H     0.06536   0.23749   0.01849   0.00000  Uiso   1.00
H232   H     0.02258   0.16987   0.10034   0.00000  Uiso   1.00
H233   H     0.14649   0.25898   0.08327   0.00000  Uiso   1.00
H234   H     0.11304   0.38808   0.19875   0.00000  Uiso   1.00
H235   H     0.01829   0.26601   0.22182   0.00000  Uiso   1.00
H236   H    -0.01792   0.34870   0.22788   0.00000  Uiso   1.00
H237   H     0.11987   0.52646   0.22497   0.00000  Uiso   1.00
H238   H     0.05924   0.53451   0.30356   0.00000  Uiso   1.00
H239   H     0.16234   0.62816   0.26510   0.00000  Uiso   1.00
H240   H     0.86647   0.44358   0.23320   0.00000  Uiso   1.00
H241   H     0.92829   0.43854   0.15239   0.00000  Uiso   1.00
H242   H     0.85254   0.48556   0.15763   0.00000  Uiso   1.00
H243   H     0.33616   0.61219   0.58189   0.00000  Uiso   1.00
H244   H     0.28633   0.68578   0.60338   0.00000  Uiso   1.00
H245   H     0.20354   0.56184   0.60086   0.00000  Uiso   1.00
H246   H     0.21148   0.45020   0.76851   0.00000  Uiso   1.00
H247   H     0.33676   0.48206   0.74394   0.00000  Uiso   1.00
H248   H     0.25391   0.44951   0.68213   0.00000  Uiso   1.00
H249   H     0.42769   0.77778   0.71229   0.00000  Uiso   1.00
H250   H     0.47311   0.69954   0.68872   0.00000  Uiso   1.00
H251   H     0.43364   0.71608   0.78321   0.00000  Uiso   1.00
H252   H     0.17491   0.60627   0.39877   0.00000  Uiso   1.00
H253   H     0.14810   0.65504   0.48095   0.00000  Uiso   1.00
H254   H     0.21076   0.58847   0.47614   0.00000  Uiso   1.00
H255   H     0.42871   0.69543   0.49363   0.00000  Uiso   1.00
H256   H     0.50381   0.78092   0.42959   0.00000  Uiso   1.00
H257   H     0.41540   0.66109   0.40706   0.00000  Uiso   1.00
H258   H     0.14323   0.86619   0.36723   0.00000  Uiso   1.00
H259   H     0.13307   0.76761   0.41102   0.00000  Uiso   1.00
H260   H     0.09903   0.76449   0.32295   0.00000  Uiso   1.00
H261   H     0.38852   0.99812   0.28285   0.00000  Uiso   1.00
H262   H     0.42029   0.98881   0.36327   0.00000  Uiso   1.00
H263   H     0.31316   0.99866   0.35878   0.00000  Uiso   1.00
H264   H     0.09447   0.83017   0.60341   0.00000  Uiso   1.00
H265   H     0.02222   0.81118   0.68011   0.00000  Uiso   1.00
H266   H     0.03461   0.71830   0.63958   0.00000  Uiso   1.00
H267   H     0.42244   0.26629   0.25884   0.00000  Uiso   1.00
H268   H     0.46307   0.18669   0.21074   0.00000  Uiso   1.00
H269   H     0.36310   0.13949   0.28296   0.00000  Uiso   1.00
H270   H     0.31401   0.10795   0.47107   0.00000  Uiso   1.00
H271   H     0.39230   0.09307   0.52535   0.00000  Uiso   1.00
H272   H     0.43740   0.20808   0.48542   0.00000  Uiso   1.00
H273   H     0.17416   0.15914   0.89114   0.00000  Uiso   1.00
H274   H     0.25027   0.18537   0.96888   0.00000  Uiso   1.00
H275   H     0.16557   0.06055   0.94175   0.00000  Uiso   1.00
H276   H     0.62638   0.39655   0.06838   0.00000  Uiso   1.00
H277   H     0.59851   0.30061   0.11790   0.00000  Uiso   1.00
H278   H     0.54105   0.37150   0.14568   0.00000  Uiso   1.00
H279   H     0.15212   0.20212   0.42381   0.00000  Uiso   1.00
H280   H     0.08985   0.19265   0.51150   0.00000  Uiso   1.00
H281   H     0.15671   0.12851   0.49877   0.00000  Uiso   1.00
H282   H     0.31860   0.44551   0.53390   0.00000  Uiso   1.00
H283   H     0.21790   0.37650   0.59365   0.00000  Uiso   1.00
H284   H     0.19082   0.39148   0.50826   0.00000  Uiso   1.00
H285   H     0.44196   0.39406   0.45545   0.00000  Uiso   1.00
H286   H     0.34338   0.36327   0.38533   0.00000  Uiso   1.00
H287   H     0.36490   0.27797   0.41330   0.00000  Uiso   1.00
H288   H     0.23054   0.31218   0.94471   0.00000  Uiso   1.00
H289   H     0.28247   0.35186   0.85348   0.00000  Uiso   1.00
H290   H     0.16511   0.34414   0.89023   0.00000  Uiso   1.00
H291   H     0.26691   0.53923   0.85599   0.00000  Uiso   1.00
H292   H     0.39290   0.56524   0.84552   0.00000  Uiso   1.00
H293   H     0.36279   0.63502   0.90282   0.00000  Uiso   1.00
H294   H     0.49359   0.46338   0.57984   0.00000  Uiso   1.00
H295   H     0.45629   0.53611   0.61696   0.00000  Uiso   1.00
H296   H     0.38593   0.41013   0.64270   0.00000  Uiso   1.00
H297   H     0.62884   0.63142   0.76135   0.00000  Uiso   1.00
H298   H     0.52082   0.54377   0.81355   0.00000  Uiso   1.00
H299   H     0.50559   0.61082   0.74262   0.00000  Uiso   1.00
H300   H     0.66668   0.46305   0.65163   0.00000  Uiso   1.00
H301   H     0.71228   0.54547   0.72626   0.00000  Uiso   1.00
H302   H     0.70527   0.58387   0.64177   0.00000  Uiso   1.00
H303   H     0.30423   0.33479   0.14193   0.00000  Uiso   1.00
H304   H     0.25909   0.40557   0.10873   0.00000  Uiso   1.00
H305   H     0.26794   0.40783   0.19702   0.00000  Uiso   1.00
H306   H     0.50396   0.44075   0.22850   0.00000  Uiso   1.00
H307   H     0.43582   0.48809   0.26534   0.00000  Uiso   1.00
H308   H     0.55820   0.56800   0.22598   0.00000  Uiso   1.00
H309   H     0.35271   0.57756   0.09669   0.00000  Uiso   1.00
H310   H     0.47743   0.66865   0.11047   0.00000  Uiso   1.00
H311   H     0.38605   0.61264   0.18288   0.00000  Uiso   1.00
H312   H     0.42954   0.76291   0.06214   0.00000  Uiso   1.00
H313   H     0.44910   0.70509  -0.01446   0.00000  Uiso   1.00
H314   H     0.35295   0.74143  -0.00939   0.00000  Uiso   1.00
H315   H     0.24030   0.96092   0.55884   0.00000  Uiso   1.00
H316   H     0.17942   0.85473   0.50912   0.00000  Uiso   1.00
H317   H     0.29460   0.95087   0.47270   0.00000  Uiso   1.00
H318   H     0.44048   0.69278   0.29933   0.00000  Uiso   1.00
H319   H     0.57392   0.75918   0.31361   0.00000  Uiso   1.00
H320   H     0.53289   0.68834   0.23509   0.00000  Uiso   1.00
H321   H     0.48915   0.89129   0.32875   0.00000  Uiso   1.00
H322   H     0.53231   0.97349   0.25096   0.00000  Uiso   1.00
H323   H     0.61399   0.93813   0.29317   0.00000  Uiso   1.00
H324   H     0.62992   0.94462   0.13609   0.00000  Uiso   1.00
H325   H     0.61827   0.83499   0.11206   0.00000  Uiso   1.00
H326   H     0.69586   0.90850   0.18119   0.00000  Uiso   1.00
H327   H     0.59032   0.88841   0.54175   0.00000  Uiso   1.00
H328   H     0.47571   0.80965   0.58705   0.00000  Uiso   1.00
H329   H     0.59558   0.86355   0.62578   0.00000  Uiso   1.00
H330   H     0.66506   1.09226   0.52636   0.00000  Uiso   1.00
H331   H     0.71149   1.07170   0.59896   0.00000  Uiso   1.00
H332   H     0.65937   1.13879   0.61408   0.00000  Uiso   1.00
H333   H     0.53027   0.10443   0.16457   0.00000  Uiso   1.00
H334   H     0.60555   0.13982   0.08195   0.00000  Uiso   1.00
H335   H     0.61775   0.06599   0.13480   0.00000  Uiso   1.00
H336   H     0.73894   0.07327   0.22319   0.00000  Uiso   1.00
H337   H     0.80209   0.01724   0.25866   0.00000  Uiso   1.00
H338   H     0.87507   0.13119   0.21650   0.00000  Uiso   1.00
H339   H     0.72521   0.23788   0.34995   0.00000  Uiso   1.00
H340   H     0.65709   0.15237   0.29019   0.00000  Uiso   1.00
H341   H     0.77636   0.25010   0.26028   0.00000  Uiso   1.00
H342   H     0.74357  -0.01320   0.38306   0.00000  Uiso   1.00
H343   H     0.64886   0.00751   0.39869   0.00000  Uiso   1.00
H344   H     0.76086   0.06788   0.45404   0.00000  Uiso   1.00
H345   H     0.62578   0.25454   0.43051   0.00000  Uiso   1.00
H346   H     0.55883   0.14986   0.48523   0.00000  Uiso   1.00
H347   H     0.69568   0.22387   0.47993   0.00000  Uiso   1.00
H348   H     0.77860   0.36824   0.63685   0.00000  Uiso   1.00
H349   H     0.81843   0.40460   0.54089   0.00000  Uiso   1.00
H350   H     0.78663   0.29786   0.57955   0.00000  Uiso   1.00
H351   H     0.51849   0.34589   0.55648   0.00000  Uiso   1.00
H352   H     0.59112   0.36755   0.47260   0.00000  Uiso   1.00
H353   H     0.64048   0.43794   0.54195   0.00000  Uiso   1.00
H354   H     1.10588   0.36851   0.31967   0.00000  Uiso   1.00
H355   H     1.14245   0.33703   0.40009   0.00000  Uiso   1.00
H356   H     1.13767   0.44462   0.39129   0.00000  Uiso   1.00
H357   H     0.85369   0.22081   0.50478   0.00000  Uiso   1.00
H358   H     0.97887   0.28754   0.53590   0.00000  Uiso   1.00
H359   H     0.93846   0.18036   0.48901   0.00000  Uiso   1.00
H360   H     0.91491   0.39840   0.34497   0.00000  Uiso   1.00
H361   H     0.97325   0.44717   0.42571   0.00000  Uiso   1.00
H362   H     0.83982   0.35039   0.41907   0.00000  Uiso   1.00
H363   H     0.60885  -0.04193   0.81548   0.00000  Uiso   1.00
H364   H     0.58667  -0.10872   0.73622   0.00000  Uiso   1.00
H365   H     0.67860   0.02864   0.73053   0.00000  Uiso   1.00
H366   H     0.86004   1.00380   0.66695   0.00000  Uiso   1.00
H367   H     0.74975   0.88233   0.66789   0.00000  Uiso   1.00
H368   H     0.85381   0.90842   0.71338   0.00000  Uiso   1.00
H369   H     0.73455   0.18015   0.94890   0.00000  Uiso   1.00
H370   H     0.77569   0.17267   0.85551   0.00000  Uiso   1.00
H371   H     0.68946   0.06641   0.90950   0.00000  Uiso   1.00
H372   H     0.78143   0.32228  -0.00828   0.00000  Uiso   1.00
H373   H     0.76709   0.39245   0.06257   0.00000  Uiso   1.00
H374   H     0.88867   0.41419   0.03958   0.00000  Uiso   1.00
H375   H     0.75236   0.60205   0.25230   0.00000  Uiso   1.00
H376   H     0.71398   0.55519   0.34310   0.00000  Uiso   1.00
H377   H     0.74056   0.49697   0.27758   0.00000  Uiso   1.00
H378   H     0.99318   0.59621   0.38566   0.00000  Uiso   1.00
H379   H     0.85862   0.52928   0.41385   0.00000  Uiso   1.00
H380   H     0.93245   0.65074   0.43986   0.00000  Uiso   1.00
H381   H     0.86331   0.76445   0.29798   0.00000  Uiso   1.00
H382   H     0.98145   0.81131   0.32882   0.00000  Uiso   1.00
H383   H     0.87105   0.74163   0.38717   0.00000  Uiso   1.00
H384   H     0.66304   0.28784   0.80410   0.00000  Uiso   1.00
H385   H     0.73088   0.30254   0.88170   0.00000  Uiso   1.00
H386   H     0.60893   0.28611   0.88887   0.00000  Uiso   1.00
H387   H     0.83409   0.28210   0.73153   0.00000  Uiso   1.00
H388   H     0.82117   0.38100   0.77667   0.00000  Uiso   1.00
H389   H     0.87101   0.32245   0.81847   0.00000  Uiso   1.00
H390   H     0.97350   0.28772   0.68351   0.00000  Uiso   1.00
H391   H     1.08492   0.33671   0.71838   0.00000  Uiso   1.00
H392   H     1.08624   0.38458   0.64038   0.00000  Uiso   1.00
H393   H     1.06580   0.58796   0.67703   0.00000  Uiso   1.00
H394   H     0.93324   0.51451   0.67540   0.00000  Uiso   1.00
H395   H     1.00983   0.48781   0.61595   0.00000  Uiso   1.00
H396   H     0.77319   0.56534   0.12253   0.00000  Uiso   1.00
H397   H     0.72021   0.55299   0.03919   0.00000  Uiso   1.00
H398   H     0.65556   0.55121   0.12550   0.00000  Uiso   1.00
H399   H     0.98547   0.64033  -0.02400   0.00000  Uiso   1.00
H400   H     0.91371   0.59995   0.05435   0.00000  Uiso   1.00
H401   H     0.88958   0.65921  -0.01339   0.00000  Uiso   1.00
H402   H     0.94742   0.81828   0.15620   0.00000  Uiso   1.00
H403   H     0.98485   0.77582   0.08231   0.00000  Uiso   1.00
H404   H     0.92603   0.70832   0.16830   0.00000  Uiso   1.00
H405   H     0.71157   0.69668   0.21536   0.00000  Uiso   1.00
H406   H     0.65409   0.73106   0.14952   0.00000  Uiso   1.00
H407   H     0.77272   0.81062   0.18919   0.00000  Uiso   1.00
H408   H     0.96009   1.01390   0.04986   0.00000  Uiso   1.00
H409   H     0.89411   0.91945   0.11595   0.00000  Uiso   1.00
H410   H     0.83200   0.96595   0.07989   0.00000  Uiso   1.00
H411   H     0.88215   0.63687   0.70938   0.00000  Uiso   1.00
H412   H     0.87033   0.54792   0.77329   0.00000  Uiso   1.00
H413   H     0.97898   0.66961   0.76582   0.00000  Uiso   1.00
H414   H     0.79243   0.73096   0.72727   0.00000  Uiso   1.00
H415   H     0.89787   0.82585   0.77136   0.00000  Uiso   1.00
H416   H     0.77426   0.76364   0.81801   0.00000  Uiso   1.00
H417   H     0.54957   0.68126   0.89970   0.00000  Uiso   1.00
H418   H     0.59155   0.70668   0.99358   0.00000  Uiso   1.00
H419   H     0.65846   0.68787   0.92490   0.00000  Uiso   1.00
loop_
_geom_bond_atom_site_label_1
_geom_bond_atom_site_label_2
_geom_bond_distance
_geom_bond_site_symmetry_2
_ccdc_geom_bond_type
Si1    C52     1.881   .     S
Si1    O92     1.554   .     S
Si1    C53     1.804   1_545 S
Si1    O79     1.529   1_545 S
Si2    C54     1.837   .     S
Si2    O63     1.611   .     S
Si2    C55     1.855   1_455 S
Si2    C56     1.881   1_455 S
Si3    C57     1.908   .     S
Si3    C58     1.818   .     S
Si3    C59     1.814   .     S
Si3    O94     1.609   .     S
Si4    O64     1.530   .     S
Si4    O98     1.607   .     S
Si4    O88     1.649   1_545 S
Si4    O91     1.597   1_545 S
Si5    C60     1.885   .     S
Si5    C61     1.791   .     S
Si5    C62     1.908   1_455 S
Si5    O158    1.612   1_455 S
Si6    O63     1.623   .     S
Si6    O64     1.574   .     S
Si6    C65     1.874   .     S
Si6    O97     1.619   .     S
Si7    C66     1.878   .     S
Si7    C67     1.866   .     S
Si7    C68     1.852   .     S
Si7    O71     1.598   .     S
Si8    C69     1.878   .     S
Si8    O76     1.584   .     S
Si8    C70     1.844   1_455 S
Si8    O165    1.597   1_455 S
Si9    O71     1.602   .     S
Si9    O77     1.630   .     S
Si9    O72     1.652   1_554 S
Si9    O116    1.611   1_554 S
Si10   O72     1.661   .     S
Si10   O85     1.611   .     S
Si10   O163    1.620   1_455 S
Si10   O173    1.649   1_455 S
Si11   C73     1.845   .     S
Si11   C74     1.927   .     S
Si11   C75     1.847   .     S
Si11   O86     1.599   .     S
Si12   O76     1.582   .     S
Si12   O77     1.570   .     S
Si12   O78     1.618   .     S
Si12   O124    1.589   .     S
Si13   O78     1.625   .     S
Si13   O79     1.626   .     S
Si13   O87     1.625   1_554 S
Si13   O140    1.606   1_554 S
Si14   C80     1.850   .     S
Si14   C81     1.928   .     S
Si14   O83     1.616   .     S
Si14   O130    1.588   .     S
Si15   C82     1.891   .     S
Si15   O83     1.621   .     S
Si15   C84     1.875   .     S
Si15   O126    1.617   .     S
Si16   O85     1.602   .     S
Si16   O86     1.601   .     S
Si16   O90     1.595   .     S
Si16   O137    1.598   .     S
Si17   O87     1.624   .     S
Si17   O88     1.629   .     S
Si17   O181    1.615   1_455 S
Si17   O187    1.658   1_455 S
Si18   C89     1.869   .     S
Si18   O90     1.583   .     S
Si18   O91     1.612   .     S
Si18   O132    1.689   .     S
Si19   O95     1.605   .     S
Si19   C145    1.792   .     S
Si19   O125    1.591   1_545 S
Si19   O129    1.606   1_545 S
Si20   O92     1.613   .     S
Si20   C93     1.883   .     S
Si20   O94     1.636   .     S
Si20   O103    1.579   .     S
Si21   O95     1.607   .     S
Si21   O104    1.598   .     S
Si21   O99     1.583   1_554 S
Si21   O162    1.597   1_554 S
Si22   C96     1.785   .     S
Si22   O97     1.575   .     S
Si22   O101    1.574   .     S
Si22   O107    1.621   .     S
Si23   O102    1.647   .     S
Si23   O160    1.638   .     S
Si23   O139    1.639   1_545 S
Si23   O143    1.589   1_545 S
Si24   O98     1.677   .     S
Si24   O99     1.643   .     S
Si24   C100    1.849   .     S
Si24   O111    1.674   .     S
Si25   O101    1.653   .     S
Si25   O102    1.611   .     S
Si25   O112    1.630   .     S
Si25   O152    1.522   .     S
Si26   O103    1.619   .     S
Si26   O104    1.606   .     S
Si26   C105    1.867   .     S
Si26   O106    1.594   .     S
Si27   O106    1.614   .     S
Si27   O122    1.549   .     S
Si27   O114    1.640   1_554 S
Si27   O176    1.634   1_554 S
Si28   O107    1.596   .     S
Si28   C108    1.839   .     S
Si28   C109    1.870   .     S
Si28   C110    1.814   .     S
Si29   O111    1.700   .     S
Si29   O112    1.558   .     S
Si29   O118    1.570   .     S
Si29   O174    1.698   .     S
Si30   C113    1.872   .     S
Si30   O114    1.618   .     S
Si30   C115    1.762   .     S
Si30   O116    1.626   .     S
Si31   C117    1.840   .     S
Si31   O118    1.617   .     S
Si31   C119    1.810   .     S
Si31   C120    1.907   .     S
Si32   C121    1.853   .     S
Si32   O122    1.574   .     S
Si32   C123    1.906   .     S
Si32   C127    1.866   .     S
Si33   O124    1.628   .     S
Si33   O125    1.572   .     S
Si33   O126    1.597   .     S
Si33   O133    1.577   .     S
Si34   C128    1.842   .     S
Si34   O129    1.556   .     S
Si34   O138    1.604   1_554 S
Si34   O191    1.636   1_554 S
Si35   O130    1.584   .     S
Si35   C131    1.794   .     S
Si35   O132    1.598   .     S
Si35   O141    1.569   .     S
Si36   O133    1.585   .     S
Si36   C134    1.845   .     S
Si36   C135    1.835   .     S
Si36   C136    1.859   .     S
Si37   O137    1.622   .     S
Si37   O138    1.587   .     S
Si37   O139    1.665   .     S
Si37   O140    1.608   .     S
Si38   O141    1.596   .     S
Si38   C142    1.807   .     S
Si38   O143    1.628   .     S
Si38   C144    1.895   .     S
Si39   C146    1.863   .     S
Si39   C147    1.902   .     S
Si39   C148    1.879   .     S
Si39   O154    1.616   .     S
Si40   C149    1.833   .     S
Si40   C150    1.872   .     S
Si40   C151    1.846   .     S
Si40   O152    1.636   .     S
Si41   C153    1.873   .     S
Si41   O154    1.582   .     S
Si41   C155    1.885   .     S
Si41   C156    1.874   .     S
Si42   C157    1.831   .     S
Si42   O158    1.580   .     S
Si42   C159    1.858   1_545 S
Si42   O190    1.563   1_545 S
Si43   O160    1.560   .     S
Si43   C161    1.774   .     S
Si43   O162    1.569   .     S
Si43   C169    1.824   .     S
Si44   C164    1.890   .     S
Si44   C178    1.898   .     S
Si44   O163    1.642   1_554 S
Si44   O175    1.609   1_554 S
Si45   O165    1.557   .     S
Si45   C166    1.835   .     S
Si45   C167    1.900   .     S
Si45   C168    1.887   .     S
Si46   C170    1.873   .     S
Si46   C171    1.896   .     S
Si46   C172    1.894   .     S
Si46   O173    1.603   .     S
Si47   O174    1.645   .     S
Si47   O175    1.599   .     S
Si47   O176    1.649   .     S
Si47   O184    1.640   .     S
Si48   C177    1.905   .     S
Si48   C179    1.889   .     S
Si48   C180    1.857   .     S
Si48   O182    1.620   .     S
Si49   O182    1.598   .     S
Si49   C183    1.932   .     S
Si49   O181    1.613   1_554 S
Si49   O189    1.583   1_554 S
Si50   O184    1.671   .     S
Si50   C185    1.828   .     S
Si50   C186    1.833   .     S
Si50   O187    1.647   .     S
Si51   C188    1.856   .     S
Si51   O189    1.594   .     S
Si51   O190    1.585   .     S
Si51   O191    1.623   .     S
C52    H192    1.093   .     S
C52    H193    1.041   .     S
C52    H194    1.145   .     S
C53    H195    1.066   .     S
C53    H196    1.079   .     S
C53    H197    1.091   .     S
C53    Si1     1.804   1_565 S
C54    H198    1.150   .     S
C54    H199    1.085   .     S
C54    H200    1.069   .     S
C55    H201    1.124   .     S
C55    H202    1.098   .     S
C55    H203    1.130   .     S
C55    Si2     1.855   1_655 S
C56    H204    1.084   .     S
C56    H205    1.085   .     S
C56    H206    1.114   .     S
C56    Si2     1.881   1_655 S
C57    H207    1.104   .     S
C57    H208    1.105   .     S
C57    H209    1.097   .     S
C58    H210    1.162   .     S
C58    H211    1.116   .     S
C58    H212    1.129   .     S
C59    H213    1.101   .     S
C59    H214    1.131   .     S
C59    H215    1.080   .     S
C60    H216    1.063   .     S
C60    H217    1.068   .     S
C60    H218    1.076   .     S
C61    H219    1.077   .     S
C61    H220    1.076   .     S
C61    H221    1.156   .     S
C62    H222    1.084   .     S
C62    H223    1.122   .     S
C62    H224    1.100   .     S
C62    Si5     1.908   1_655 S
C65    H225    1.066   .     S
C65    H226    1.057   .     S
C65    H227    1.054   .     S
C66    H228    1.126   .     S
C66    H229    1.137   .     S
C66    H230    1.067   .     S
C67    H231    1.093   .     S
C67    H232    1.076   .     S
C67    H233    1.101   .     S
C68    H234    1.107   .     S
C68    H235    1.113   .     S
C68    H236    1.059   .     S
C69    H237    1.096   .     S
C69    H238    1.114   .     S
C69    H239    1.017   .     S
C70    H240    1.065   .     S
C70    H241    1.085   .     S
C70    H242    1.056   .     S
C70    Si8     1.844   1_655 S
O72    Si9     1.652   1_556 S
C73    H243    1.132   .     S
C73    H244    1.103   .     S
C73    H245    1.150   .     S
C74    H246    1.118   .     S
C74    H247    1.138   .     S
C74    H248    1.084   .     S
C75    H249    1.072   .     S
C75    H250    1.164   .     S
C75    H251    1.125   .     S
O79    Si1     1.529   1_565 S
C80    H252    1.106   .     S
C80    H253    1.080   .     S
C80    H254    1.082   .     S
C81    H255    1.052   .     S
C81    H256    1.100   .     S
C81    H257    1.141   .     S
C82    H258    1.091   .     S
C82    H259    1.092   .     S
C82    H260    1.072   .     S
C84    H261    1.054   .     S
C84    H262    1.097   .     S
C84    H263    1.074   .     S
O87    Si13    1.625   1_556 S
O88    Si4     1.649   1_565 S
C89    H264    1.094   .     S
C89    H265    1.112   .     S
C89    H266    1.111   .     S
O91    Si4     1.597   1_565 S
C93    H267    1.177   .     S
C93    H268    1.178   .     S
C93    H269    1.136   .     S
C96    H270    1.095   .     S
C96    H271    1.104   .     S
C96    H272    1.165   .     S
O99    Si21    1.583   1_556 S
C100   H273    1.116   .     S
C100   H274    1.148   .     S
C100   H275    1.131   .     S
C105   H276    1.054   .     S
C105   H277    1.104   .     S
C105   H278    1.154   .     S
C108   H279    1.166   .     S
C108   H280    1.136   .     S
C108   H281    1.129   .     S
C109   H282    1.086   .     S
C109   H283    1.081   .     S
C109   H284    1.115   .     S
C110   H285    1.174   .     S
C110   H286    1.131   .     S
C110   H287    1.100   .     S
C113   H288    1.103   .     S
C113   H289    1.112   .     S
C113   H290    1.112   .     S
O114   Si27    1.640   1_556 S
C115   H291    1.107   .     S
C115   H292    1.070   .     S
C115   H293    1.118   .     S
O116   Si9     1.611   1_556 S
C117   H294    1.092   .     S
C117   H295    1.140   .     S
C117   H296    1.136   .     S
C119   H297    1.107   .     S
C119   H298    1.107   .     S
C119   H299    1.090   .     S
C120   H300    1.090   .     S
C120   H301    1.143   .     S
C120   H302    1.112   .     S
C121   H303    1.106   .     S
C121   H304    1.129   .     S
C121   H305    1.113   .     S
C123   H306    1.112   .     S
C123   H307    1.101   .     S
C123   H308    1.069   .     S
O125   Si19    1.591   1_565 S
C127   H309    1.090   .     S
C127   H310    1.090   .     S
C127   H311    1.141   .     S
C128   H312    1.092   .     S
C128   H313    1.103   .     S
C128   H314    1.128   .     S
O129   Si19    1.606   1_565 S
C131   H315    1.114   .     S
C131   H316    1.145   .     S
C131   H317    1.131   .     S
C134   H318    1.102   .     S
C134   H319    1.131   .     S
C134   H320    1.127   .     S
C135   H321    1.096   .     S
C135   H322    1.147   .     S
C135   H323    1.055   .     S
C136   H324    1.107   .     S
C136   H325    1.127   .     S
C136   H326    1.078   .     S
O138   Si34    1.604   1_556 S
O139   Si23    1.639   1_565 S
O140   Si13    1.606   1_556 S
C142   H327    1.120   .     S
C142   H328    1.114   .     S
C142   H329    1.088   .     S
O143   Si23    1.589   1_565 S
C144   H330    1.086   .     S
C144   H331    1.047   .     S
C144   H332    1.122   .     S
C145   H333    1.126   .     S
C145   H334    1.069   .     S
C145   H335    1.124   .     S
C146   H336    1.089   .     S
C146   H337    1.114   .     S
C146   H338    1.126   .     S
C147   H339    1.078   .     S
C147   H340    1.113   .     S
C147   H341    1.091   .     S
C148   H342    1.096   .     S
C148   H343    1.146   .     S
C148   H344    1.126   .     S
C149   H345    1.120   .     S
C149   H346    1.136   .     S
C149   H347    1.091   .     S
C150   H348    1.105   .     S
C150   H349    1.132   .     S
C150   H350    1.075   .     S
C151   H351    1.110   .     S
C151   H352    1.098   .     S
C151   H353    1.060   .     S
C153   H354    1.087   .     S
C153   H355    1.125   .     S
C153   H356    1.131   .     S
C155   H357    1.093   .     S
C155   H358    1.125   .     S
C155   H359    1.152   .     S
C156   H360    1.104   .     S
C156   H361    1.117   .     S
C156   H362    1.072   .     S
C157   H363    1.130   .     S
C157   H364    1.121   .     S
C157   H365    1.159   .     S
O158   Si5     1.612   1_655 S
C159   H366    1.139   .     S
C159   H367    1.086   .     S
C159   H368    1.093   .     S
C159   Si42    1.858   1_565 S
C161   H369    1.149   .     S
C161   H370    1.101   .     S
C161   H371    1.087   .     S
O162   Si21    1.597   1_556 S
O163   Si10    1.620   1_655 S
O163   Si44    1.642   1_556 S
C164   H372    1.181   .     S
C164   H373    1.044   .     S
C164   H374    1.098   .     S
O165   Si8     1.597   1_655 S
C166   H375    1.110   .     S
C166   H376    1.133   .     S
C166   H377    1.085   .     S
C167   H378    1.113   .     S
C167   H379    1.133   .     S
C167   H380    1.127   .     S
C168   H381    1.066   .     S
C168   H382    1.091   .     S
C168   H383    1.118   .     S
C169   H384    1.103   .     S
C169   H385    1.092   .     S
C169   H386    1.116   .     S
C170   H387    1.128   .     S
C170   H388    1.116   .     S
C170   H389    1.115   .     S
C171   H390    1.088   .     S
C171   H391    1.062   .     S
C171   H392    1.072   .     S
C172   H393    1.107   .     S
C172   H394    1.111   .     S
C172   H395    1.152   .     S
O173   Si10    1.649   1_655 S
O175   Si44    1.609   1_556 S
O176   Si27    1.634   1_556 S
C177   H396    1.156   .     S
C177   H397    1.104   .     S
C177   H398    1.068   .     S
C178   H399    1.038   .     S
C178   H400    1.096   .     S
C178   H401    1.133   .     S
C179   H402    1.081   .     S
C179   H403    1.137   .     S
C179   H404    1.139   .     S
C180   H405    1.117   .     S
C180   H406    1.097   .     S
C180   H407    1.130   .     S
O181   Si17    1.615   1_655 S
O181   Si49    1.613   1_556 S
C183   H408    1.082   .     S
C183   H409    1.091   .     S
C183   H410    1.083   .     S
C185   H411    1.076   .     S
C185   H412    1.144   .     S
C185   H413    1.123   .     S
C186   H414    1.136   .     S
C186   H415    1.117   .     S
C186   H416    1.111   .     S
O187   Si17    1.658   1_655 S
C188   H417    1.127   .     S
C188   H418    1.138   .     S
C188   H419    1.095   .     S
O189   Si49    1.583   1_556 S
O190   Si42    1.563   1_565 S
O191   Si34    1.636   1_556 S
