data_333-15-11-10-15-30-16
_audit_creation_date              2025-03-07
_audit_creation_method            'Materials Studio'
_symmetry_space_group_name_H-M    'P1'
_symmetry_Int_Tables_number       1
_symmetry_cell_setting            triclinic
loop_
_symmetry_equiv_pos_as_xyz
  x,y,z
_cell_length_a                    16.2140
_cell_length_b                    15.7090
_cell_length_c                    18.8807
_cell_angle_alpha                 79.0489
_cell_angle_beta                  95.2647
_cell_angle_gamma                 116.3603
loop_
_atom_site_label
_atom_site_type_symbol
_atom_site_fract_x
_atom_site_fract_y
_atom_site_fract_z
_atom_site_U_iso_or_equiv
_atom_site_adp_type
_atom_site_occupancy
Si1    Si    0.11439  -0.06583   0.16530   0.00000  Uiso   1.00
Si2    Si   -0.02504   0.16426   0.22554   0.00000  Uiso   1.00
Si3    Si    0.16099   0.03609   0.47677   0.00000  Uiso   1.00
Si4    Si    0.00770   0.19303   0.56269   0.00000  Uiso   1.00
Si5    Si    0.12127   0.16604   0.35250   0.00000  Uiso   1.00
Si6    Si    0.20156  -0.07781   0.76869   0.00000  Uiso   1.00
Si7    Si   -0.01346   0.22589   0.92331   0.00000  Uiso   1.00
Si8    Si    0.12677   0.34805   0.13565   0.00000  Uiso   1.00
Si9    Si   -0.04991   0.49606   0.21601   0.00000  Uiso   1.00
Si10   Si    0.16605   0.32759   0.45063   0.00000  Uiso   1.00
Si11   Si   -0.01643   0.44780   0.52188   0.00000  Uiso   1.00
Si12   Si    0.12598   0.32583   0.79900   0.00000  Uiso   1.00
Si13   Si    0.02921   0.52887   0.79573   0.00000  Uiso   1.00
Si14   Si    0.14567   0.43479   0.63947   0.00000  Uiso   1.00
Si15   Si   -0.07350   0.78126   0.21663   0.00000  Uiso   1.00
Si16   Si    0.12664   0.64402   0.44412   0.00000  Uiso   1.00
Si17   Si    0.19064   0.62849   0.68791   0.00000  Uiso   1.00
Si18   Si   -0.04188   0.87330   0.93670   0.00000  Uiso   1.00
Si19   Si    0.55749   0.07039   0.09295   0.00000  Uiso   1.00
Si20   Si    0.54103   0.14856   0.32162   0.00000  Uiso   1.00
Si21   Si    0.61101   0.05632   0.81543   0.00000  Uiso   1.00
Si22   Si    0.30174   0.04937   0.88177   0.00000  Uiso   1.00
Si23   Si    0.49758   0.38143   0.12521   0.00000  Uiso   1.00
Si24   Si    0.31340   0.43834   0.55737   0.00000  Uiso   1.00
Si25   Si    0.49990   0.49285   0.31367   0.00000  Uiso   1.00
Si26   Si    0.48142   0.38759   0.60894   0.00000  Uiso   1.00
Si27   Si    0.45089   0.64813   0.55708   0.00000  Uiso   1.00
Si28   Si    0.44986   0.80003   0.25089   0.00000  Uiso   1.00
Si29   Si    0.58975   0.88449   0.75758   0.00000  Uiso   1.00
Si30   Si    0.82181   0.02739   0.12800   0.00000  Uiso   1.00
Si31   Si    0.67612   0.17150   0.21102   0.00000  Uiso   1.00
Si32   Si    0.84915   0.22687   0.01911   0.00000  Uiso   1.00
Si33   Si    0.78878  -0.05011   0.37809   0.00000  Uiso   1.00
Si34   Si    0.71784   0.17413   0.54040   0.00000  Uiso   1.00
Si35   Si    0.83787   0.16635   0.31488   0.00000  Uiso   1.00
Si36   Si    0.74809   0.23650   0.87528   0.00000  Uiso   1.00
Si37   Si    0.86974   0.20196   0.65307   0.00000  Uiso   1.00
Si38   Si    0.80907   0.35553   0.11285   0.00000  Uiso   1.00
Si39   Si    0.64796   0.49718   0.22366   0.00000  Uiso   1.00
Si40   Si    0.79074   0.52842   0.01483   0.00000  Uiso   1.00
Si41   Si    0.84484   0.31278   0.41559   0.00000  Uiso   1.00
Si42   Si    0.66630   0.47155   0.52372   0.00000  Uiso   1.00
Si43   Si    0.81030   0.48480   0.31847   0.00000  Uiso   1.00
Si44   Si    0.88039   0.34726   0.74611   0.00000  Uiso   1.00
Si45   Si    0.64951   0.54914   0.90128   0.00000  Uiso   1.00
Si46   Si    0.82685   0.45093   0.61712   0.00000  Uiso   1.00
Si47   Si    0.78760   0.66477   0.11944   0.00000  Uiso   1.00
Si48   Si    0.64155   0.84387   0.19121   0.00000  Uiso   1.00
Si49   Si    0.82587   0.87500   0.04296   0.00000  Uiso   1.00
Si50   Si    0.79930   0.63354   0.40954   0.00000  Uiso   1.00
Si51   Si    0.78406   0.80512   0.29521   0.00000  Uiso   1.00
C52    C     0.16055  -0.02703   0.25289   0.00000  Uiso   1.00
C53    C     0.17614  -0.12991   0.13798   0.00000  Uiso   1.00
C54    C     0.14068   1.04509   0.09766   0.00000  Uiso   1.00
C55    C     0.23874   0.12520   0.53105   0.00000  Uiso   1.00
C56    C     0.07147   0.92201   0.52734   0.00000  Uiso   1.00
C57    C     0.24980   1.00890   0.44305   0.00000  Uiso   1.00
C58    C     0.06319   0.14270   0.63624   0.00000  Uiso   1.00
O59    O     0.03292   0.14315   0.29802   0.00000  Uiso   1.00
O60    O     0.10658   0.07543   0.41167   0.00000  Uiso   1.00
C61    C     0.21304   0.18681   0.29233   0.00000  Uiso   1.00
C62    C     0.08652  -0.10584   0.72592   0.00000  Uiso   1.00
C63    C     0.28544   0.97996   0.68991   0.00000  Uiso   1.00
C64    C     0.05655   0.18179   0.98666   0.00000  Uiso   1.00
C65    C     0.89727   0.12123   0.89062   0.00000  Uiso   1.00
O66    O     0.04506   0.24354   0.16482   0.00000  Uiso   1.00
C67    C     0.20905   0.35227   0.06768   0.00000  Uiso   1.00
C68    C     0.07581   0.42871   0.08647   0.00000  Uiso   1.00
C69    C     0.19503   0.40522   0.21251   0.00000  Uiso   1.00
C70    C     0.02004   0.44755   0.26811   0.00000  Uiso   1.00
C71    C     0.02129   0.60893   0.15093   0.00000  Uiso   1.00
O72    O     0.08596   0.27665   0.51022   0.00000  Uiso   1.00
O73    O     0.15184   0.25324   0.39535   0.00000  Uiso   1.00
C74    C     0.14464   0.42041   0.39361   0.00000  Uiso   1.00
O75    O     0.04405   0.29748   0.85463   0.00000  Uiso   1.00
C76    C     0.13020   0.20919   0.79906   0.00000  Uiso   1.00
C77    C     0.23009   0.41367   0.83951   0.00000  Uiso   1.00
C78    C     0.05094   0.50085   0.89582   0.00000  Uiso   1.00
O79    O     0.06182   0.42717   0.58010   0.00000  Uiso   1.00
O80    O     0.10636   0.36527   0.71567   0.00000  Uiso   1.00
C81    C    -0.00652   0.74915   0.29516   0.00000  Uiso   1.00
O82    O     0.00558   0.86250   0.16850   0.00000  Uiso   1.00
O83    O     0.03201   0.55597   0.47644   0.00000  Uiso   1.00
C84    C     0.13992   0.63900   0.34506   0.00000  Uiso   1.00
C85    C     0.13689   0.76650   0.45207   0.00000  Uiso   1.00
C86    C     0.22730   0.63267   0.49195   0.00000  Uiso   1.00
O87    O     0.13121   0.57990   0.75902   0.00000  Uiso   1.00
O88    O     0.19474   0.54539   0.65318   0.00000  Uiso   1.00
C89    C     0.14366   0.70823   0.63152   0.00000  Uiso   1.00
C90    C     0.30639   0.70315   0.71800   0.00000  Uiso   1.00
C91    C     0.04097   0.82760   0.98276   0.00000  Uiso   1.00
C92    C     0.01640   0.98314   0.87102   0.00000  Uiso   1.00
C93    C     0.20822   0.80704   0.81627   0.00000  Uiso   1.00
C94    C     0.86943   0.78634   0.88605   0.00000  Uiso   1.00
C95    C     0.58220   0.17048   0.01341   0.00000  Uiso   1.00
C96    C     0.43988   1.04601   0.12560   0.00000  Uiso   1.00
C97    C     0.54543   0.96270   0.05868   0.00000  Uiso   1.00
C98    C     0.41370   0.07773   0.32002   0.00000  Uiso   1.00
C99    C     0.58991   0.07761   0.38372   0.00000  Uiso   1.00
C100   C     0.56184   0.25882   0.35242   0.00000  Uiso   1.00
C101   C     0.58149   0.12767   0.73697   0.00000  Uiso   1.00
C102   C     0.51226   0.98635   0.87809   0.00000  Uiso   1.00
O103   O     0.22625  -0.00021   0.82347   0.00000  Uiso   1.00
C104   C     0.31990  -0.04750   0.95339   0.00000  Uiso   1.00
C105   C     0.40515   0.14907   0.83281   0.00000  Uiso   1.00
C106   C     0.26032   0.11296   0.93146   0.00000  Uiso   1.00
C107   C     0.38670   0.29203   0.16865   0.00000  Uiso   1.00
C108   C     0.52040   0.31379   0.06849   0.00000  Uiso   1.00
C109   C     0.49977   0.49502   0.06865   0.00000  Uiso   1.00
O110   O     0.26413   0.38151   0.49169   0.00000  Uiso   1.00
O111   O     0.22809   0.41456   0.61050   0.00000  Uiso   1.00
C112   C     0.43547   0.52323   0.24004   0.00000  Uiso   1.00
C113   C     0.42050   0.36846   0.36232   0.00000  Uiso   1.00
O114   O     0.38539   0.40028   0.59540   0.00000  Uiso   1.00
C115   C     0.45178   0.25891   0.61106   0.00000  Uiso   1.00
C116   C     0.51802   0.40364   0.70365   0.00000  Uiso   1.00
O117   O     0.37566   0.55312   0.52929   0.00000  Uiso   1.00
C118   C     0.52841   0.57866   0.37393   0.00000  Uiso   1.00
C119   C     0.56698   0.66921   0.54080   0.00000  Uiso   1.00
C120   C     0.44087   0.61728   0.65775   0.00000  Uiso   1.00
C121   C     0.35715   0.73959   0.18177   0.00000  Uiso   1.00
C122   C     0.44775   0.76859   0.52113   0.00000  Uiso   1.00
C123   C     0.42028   0.70754   0.33366   0.00000  Uiso   1.00
C124   C     0.43166   0.89064   0.28567   0.00000  Uiso   1.00
C125   C     0.51014   0.89937   0.68164   0.00000  Uiso   1.00
C126   C     0.51388   0.77956   0.82596   0.00000  Uiso   1.00
O127   O     0.63458   0.98346   0.78695   0.00000  Uiso   1.00
C128   C     0.66981   0.84662   0.71943   0.00000  Uiso   1.00
O129   O     0.90418   0.07101   0.18893   0.00000  Uiso   1.00
O130   O     0.62902   0.09372   0.15865   0.00000  Uiso   1.00
O131   O     0.59627   0.17943   0.24866   0.00000  Uiso   1.00
O132   O     0.93762   0.26728   0.96916   0.00000  Uiso   1.00
O133   O     0.82058   0.11650   0.06679   0.00000  Uiso   1.00
C134   C     0.81257  -0.09414   0.46554   0.00000  Uiso   1.00
C135   C     0.93944   0.09950   0.50931   0.00000  Uiso   1.00
C136   C     0.66316   0.90378   0.36968   0.00000  Uiso   1.00
C137   C     0.68684   0.04385   0.53562   0.00000  Uiso   1.00
C138   C     0.60908   0.18417   0.55367   0.00000  Uiso   1.00
O139   O     0.91026   0.20050   0.25405   0.00000  Uiso   1.00
O140   O     0.74350   0.14520   0.27211   0.00000  Uiso   1.00
O141   O     0.83258   0.06468   0.36168   0.00000  Uiso   1.00
O142   O     0.69710   0.12801   0.85555   0.00000  Uiso   1.00
O143   O     0.77526   0.22570   0.95917   0.00000  Uiso   1.00
C144   C     0.67172   0.29922   0.85728   0.00000  Uiso   1.00
O145   O     0.94743   0.22939   0.59515   0.00000  Uiso   1.00
O146   O     0.78454   0.20754   0.60622   0.00000  Uiso   1.00
C147   C     0.84391   0.07916   0.70365   0.00000  Uiso   1.00
O148   O     0.72625   0.26838   0.15717   0.00000  Uiso   1.00
O149   O     0.85196   0.30620   0.06827   0.00000  Uiso   1.00
O150   O     0.88421   0.41413   0.16861   0.00000  Uiso   1.00
O151   O     0.57923   0.41293   0.18548   0.00000  Uiso   1.00
O152   O     0.59312   0.51150   0.28336   0.00000  Uiso   1.00
C153   C     0.98556   0.62455   0.79943   0.00000  Uiso   1.00
C154   C     0.89057   0.56552   0.96238   0.00000  Uiso   1.00
O155   O     0.77152   0.42404   0.06168   0.00000  Uiso   1.00
O156   O     0.76572   0.23875   0.46680   0.00000  Uiso   1.00
O157   O     0.86281   0.25083   0.36550   0.00000  Uiso   1.00
O158   O     0.94253   0.37535   0.46085   0.00000  Uiso   1.00
C159   C     0.63290   0.39424   0.45791   0.00000  Uiso   1.00
O160   O     0.56894   0.45651   0.56145   0.00000  Uiso   1.00
O161   O     0.89723   0.52364   0.26719   0.00000  Uiso   1.00
O162   O     0.72040   0.46091   0.26878   0.00000  Uiso   1.00
O163   O     0.80662   0.38506   0.36458   0.00000  Uiso   1.00
O164   O     0.83544   0.29679   0.82387   0.00000  Uiso   1.00
O165   O     0.90308   0.27784   0.70632   0.00000  Uiso   1.00
O166   O     0.96981   0.43456   0.75724   0.00000  Uiso   1.00
C167   C     0.53870   0.44562   0.88583   0.00000  Uiso   1.00
O168   O     0.70304   0.52268   0.97003   0.00000  Uiso   1.00
C169   C     0.71362   0.57965   0.81849   0.00000  Uiso   1.00
C170   C     0.62338   0.64511   0.91647   0.00000  Uiso   1.00
O171   O     0.89235   0.44053   0.56303   0.00000  Uiso   1.00
O172   O     0.72766   0.44128   0.58515   0.00000  Uiso   1.00
O173   O     0.81645   0.38213   0.68999   0.00000  Uiso   1.00
C174   C     0.88289   0.57253   0.64269   0.00000  Uiso   1.00
O175   O     0.69862   0.59189   0.16503   0.00000  Uiso   1.00
O176   O     0.81038   0.61028   0.06439   0.00000  Uiso   1.00
O177   O     0.86838   0.69559   0.17482   0.00000  Uiso   1.00
C178   C     0.60283   0.77652   0.11539   0.00000  Uiso   1.00
O179   O     0.71615   0.95692   0.16126   0.00000  Uiso   1.00
O180   O     0.54883   0.83763   0.22509   0.00000  Uiso   1.00
O181   O     0.91857   0.89572   1.00297   0.00000  Uiso   1.00
O182   O     0.77951   0.76326   0.08084   0.00000  Uiso   1.00
O183   O     0.84913   0.95818   0.09127   0.00000  Uiso   1.00
C184   C     0.74708   0.89842   0.96739   0.00000  Uiso   1.00
O185   O     0.72421   0.57425   0.47683   0.00000  Uiso   1.00
O186   O     0.82621   0.56403   0.36937   0.00000  Uiso   1.00
C187   C     0.90007   0.70489   0.45738   0.00000  Uiso   1.00
O188   O     0.85547   0.81693   0.24123   0.00000  Uiso   1.00
O189   O     0.69132   0.79755   0.25144   0.00000  Uiso   1.00
O190   O     0.76502   0.70856   0.35409   0.00000  Uiso   1.00
O191   O     0.82067   0.90339   0.32502   0.00000  Uiso   1.00
H192   H     0.17736  -0.08399   0.28680   0.00000  Uiso   1.00
H193   H     0.11073  -0.01527   0.27985   0.00000  Uiso   1.00
H194   H     0.22480   0.03295   0.24204   0.00000  Uiso   1.00
H195   H     0.12316  -0.19022   0.11391   0.00000  Uiso   1.00
H196   H     0.20269  -0.15868   0.19051   0.00000  Uiso   1.00
H197   H     0.23944  -0.07597   0.10642   0.00000  Uiso   1.00
H198   H     0.10814   1.08845   0.11521   0.00000  Uiso   1.00
H199   H     0.11180   1.02976   0.04395   0.00000  Uiso   1.00
H200   H     0.21486   1.09543   0.10185   0.00000  Uiso   1.00
H201   H     0.21791   0.09377   0.58785   0.00000  Uiso   1.00
H202   H     0.23802   0.19225   0.51740   0.00000  Uiso   1.00
H203   H     0.31117   0.13674   0.52404   0.00000  Uiso   1.00
H204   H     0.03312   0.89717   0.48072   0.00000  Uiso   1.00
H205   H     0.02302   0.92859   0.56014   0.00000  Uiso   1.00
H206   H     0.10668   0.87199   0.55607   0.00000  Uiso   1.00
H207   H     0.22154   0.97565   0.39435   0.00000  Uiso   1.00
H208   H     0.26374   0.96293   0.49254   0.00000  Uiso   1.00
H209   H     0.31096   1.07114   0.42747   0.00000  Uiso   1.00
H210   H     0.01257   0.09139   0.67880   0.00000  Uiso   1.00
H211   H     0.12124   0.19688   0.66395   0.00000  Uiso   1.00
H212   H     0.08894   0.10136   0.61535   0.00000  Uiso   1.00
H213   H     0.25674   0.26643   0.27580   0.00000  Uiso   1.00
H214   H     0.18643   0.16275   0.23914   0.00000  Uiso   1.00
H215   H     0.25080   0.14451   0.32256   0.00000  Uiso   1.00
H216   H     0.03232  -0.14383   0.76406   0.00000  Uiso   1.00
H217   H     0.07227  -0.15196   0.68672   0.00000  Uiso   1.00
H218   H     0.08359  -0.04192   0.69190   0.00000  Uiso   1.00
H219   H     0.34888   0.97925   0.70652   0.00000  Uiso   1.00
H220   H     0.29863   1.05467   0.67667   0.00000  Uiso   1.00
H221   H     0.26023   0.93942   0.64247   0.00000  Uiso   1.00
H222   H     0.01431   0.09798   1.00080   0.00000  Uiso   1.00
H223   H     0.06067   0.21493   1.03469   0.00000  Uiso   1.00
H224   H     0.12908   0.21603   0.96723   0.00000  Uiso   1.00
H225   H     0.84541   0.09284   0.93281   0.00000  Uiso   1.00
H226   H     0.92176   0.07202   0.87838   0.00000  Uiso   1.00
H227   H     0.87567   0.14539   0.83499   0.00000  Uiso   1.00
H228   H     0.18383   0.37062   0.01174   0.00000  Uiso   1.00
H229   H     0.20834   0.28135   0.07138   0.00000  Uiso   1.00
H230   H     0.27791   0.41750   0.07560   0.00000  Uiso   1.00
H231   H     0.01684   0.41538   0.11995   0.00000  Uiso   1.00
H232   H     0.05473   0.41083   0.03315   0.00000  Uiso   1.00
H233   H     0.13008   0.50061   0.08413   0.00000  Uiso   1.00
H234   H     0.26049   0.39915   0.21281   0.00000  Uiso   1.00
H235   H     0.15850   0.35853   0.26165   0.00000  Uiso   1.00
H236   H     0.20306   0.48212   0.20547   0.00000  Uiso   1.00
H237   H     0.09377   0.50167   0.25248   0.00000  Uiso   1.00
H238   H     0.00864   0.37609   0.25649   0.00000  Uiso   1.00
H239   H    -0.00051   0.43716   0.32354   0.00000  Uiso   1.00
H240   H     0.05503   0.66591   0.18472   0.00000  Uiso   1.00
H241   H    -0.02623   0.62843   0.11431   0.00000  Uiso   1.00
H242   H     0.07061   0.59730   0.12223   0.00000  Uiso   1.00
H243   H     0.09430   0.36936   0.36153   0.00000  Uiso   1.00
H244   H     0.20669   0.47306   0.36265   0.00000  Uiso   1.00
H245   H     0.12317   0.45004   0.42959   0.00000  Uiso   1.00
H246   H     0.19430   0.22311   0.76937   0.00000  Uiso   1.00
H247   H     0.06756   0.16173   0.77431   0.00000  Uiso   1.00
H248   H     0.13523   0.17889   0.85578   0.00000  Uiso   1.00
H249   H     0.24533   0.39909   0.89769   0.00000  Uiso   1.00
H250   H     0.22860   0.48507   0.83213   0.00000  Uiso   1.00
H251   H     0.29455   0.42767   0.81080   0.00000  Uiso   1.00
H252   H     0.07901   0.56846   0.92539   0.00000  Uiso   1.00
H253   H     0.09913   0.46496   0.90579   0.00000  Uiso   1.00
H254   H    -0.01316   0.44723   0.92525   0.00000  Uiso   1.00
H255   H     0.05228   0.75132   0.26649   0.00000  Uiso   1.00
H256   H    -0.03654   0.67550   0.31996   0.00000  Uiso   1.00
H257   H     0.01958   0.80642   0.32929   0.00000  Uiso   1.00
H258   H     0.06993   0.60701   0.32484   0.00000  Uiso   1.00
H259   H     0.16872   0.58995   0.33732   0.00000  Uiso   1.00
H260   H     0.18669   0.70878   0.31642   0.00000  Uiso   1.00
H261   H     0.08546   0.76387   0.48958   0.00000  Uiso   1.00
H262   H     0.12115   0.79472   0.39532   0.00000  Uiso   1.00
H263   H     0.20807   0.81404   0.46161   0.00000  Uiso   1.00
H264   H     0.23444   0.65943   0.54122   0.00000  Uiso   1.00
H265   H     0.28966   0.67431   0.45740   0.00000  Uiso   1.00
H266   H     0.22686   0.56222   0.50092   0.00000  Uiso   1.00
H267   H     0.11127   0.73433   0.66494   0.00000  Uiso   1.00
H268   H     0.09168   0.66884   0.59421   0.00000  Uiso   1.00
H269   H     0.20031   0.76996   0.60124   0.00000  Uiso   1.00
H270   H     0.33237   0.65742   0.75756   0.00000  Uiso   1.00
H271   H     0.31755   0.76995   0.74131   0.00000  Uiso   1.00
H272   H     0.34864   0.73511   0.66984   0.00000  Uiso   1.00
H273   H     0.05756   0.78574   0.95101   0.00000  Uiso   1.00
H274   H     0.01016   0.78293   1.03298   0.00000  Uiso   1.00
H275   H     0.10886   0.88831   0.99338   0.00000  Uiso   1.00
H276   H     0.07259   0.97183   0.84650   0.00000  Uiso   1.00
H277   H     0.04377   1.03810   0.90731   0.00000  Uiso   1.00
H278   H    -0.03475   0.98172   0.82733   0.00000  Uiso   1.00
H279   H     0.28134   0.82507   0.82965   0.00000  Uiso   1.00
H280   H     0.17890   0.75088   0.78135   0.00000  Uiso   1.00
H281   H     0.16597   0.78167   0.86223   0.00000  Uiso   1.00
H282   H     0.83207   0.72204   0.92393   0.00000  Uiso   1.00
H283   H     0.90167   0.77179   0.84252   0.00000  Uiso   1.00
H284   H     0.82100   0.81164   0.86066   0.00000  Uiso   1.00
H285   H     0.59146   0.13502  -0.02874   0.00000  Uiso   1.00
H286   H     0.64739   0.23012   0.02090   0.00000  Uiso   1.00
H287   H     0.51960   0.18467   0.00145   0.00000  Uiso   1.00
H288   H     0.44466   1.08604   0.16894   0.00000  Uiso   1.00
H289   H     0.40756   0.96837   0.14351   0.00000  Uiso   1.00
H290   H     0.39599   1.06367   0.08476   0.00000  Uiso   1.00
H291   H     0.53668   0.91080   0.10648   0.00000  Uiso   1.00
H292   H     0.61048   0.98399   0.03049   0.00000  Uiso   1.00
H293   H     0.47990   0.93469   0.02771   0.00000  Uiso   1.00
H294   H     0.40078   0.02633   0.36587   0.00000  Uiso   1.00
H295   H     0.38594   0.04225   0.27274   0.00000  Uiso   1.00
H296   H     0.39001   0.13409   0.32466   0.00000  Uiso   1.00
H297   H     0.59914   0.02403   0.36024   0.00000  Uiso   1.00
H298   H     0.54307   0.05080   0.42999   0.00000  Uiso   1.00
H299   H     0.65916   0.12746   0.40085   0.00000  Uiso   1.00
H300   H     0.51687   0.24373   0.40101   0.00000  Uiso   1.00
H301   H     0.54516   0.30428   0.30907   0.00000  Uiso   1.00
H302   H     0.63374   0.28914   0.36611   0.00000  Uiso   1.00
H303   H     0.55523   0.17492   0.75609   0.00000  Uiso   1.00
H304   H     0.52069   0.08318   0.70697   0.00000  Uiso   1.00
H305   H     0.64093   0.17978   0.70181   0.00000  Uiso   1.00
H306   H     0.53034   0.93414   0.91898   0.00000  Uiso   1.00
H307   H     0.45104   0.95203   0.84351   0.00000  Uiso   1.00
H308   H     0.49282   1.03128   0.90124   0.00000  Uiso   1.00
H309   H     0.37785  -0.00570   0.98676   0.00000  Uiso   1.00
H310   H     0.33212  -0.10715   0.93899   0.00000  Uiso   1.00
H311   H     0.25892  -0.08995   0.98548   0.00000  Uiso   1.00
H312   H     0.38250   0.20345   0.80889   0.00000  Uiso   1.00
H313   H     0.41402   0.10955   0.79140   0.00000  Uiso   1.00
H314   H     0.45660   0.16934   0.87600   0.00000  Uiso   1.00
H315   H     0.18524   0.07079   0.93991   0.00000  Uiso   1.00
H316   H     0.26718   0.18077   0.90433   0.00000  Uiso   1.00
H317   H     0.29321   0.12179   0.98683   0.00000  Uiso   1.00
H318   H     0.34213   0.24504   0.13071   0.00000  Uiso   1.00
H319   H     0.35159   0.33218   0.18032   0.00000  Uiso   1.00
H320   H     0.40630   0.25461   0.21658   0.00000  Uiso   1.00
H321   H     0.45885   0.28811   0.03259   0.00000  Uiso   1.00
H322   H     0.52871   0.25855   0.11175   0.00000  Uiso   1.00
H323   H     0.58616   0.36527   0.04074   0.00000  Uiso   1.00
H324   H     0.51408   0.55476   0.10178   0.00000  Uiso   1.00
H325   H     0.43694   0.48087   0.03527   0.00000  Uiso   1.00
H326   H     0.55720   0.52204   0.03641   0.00000  Uiso   1.00
H327   H     0.48220   0.59722   0.21530   0.00000  Uiso   1.00
H328   H     0.37071   0.52001   0.26058   0.00000  Uiso   1.00
H329   H     0.42082   0.47408   0.20178   0.00000  Uiso   1.00
H330   H     0.45032   0.35120   0.41568   0.00000  Uiso   1.00
H331   H     0.41133   0.31582   0.32529   0.00000  Uiso   1.00
H332   H     0.34888   0.35745   0.37513   0.00000  Uiso   1.00
H333   H     0.38483   0.21454   0.63703   0.00000  Uiso   1.00
H334   H     0.49931   0.23322   0.63749   0.00000  Uiso   1.00
H335   H     0.44784   0.24394   0.55354   0.00000  Uiso   1.00
H336   H     0.56771   0.37442   0.73083   0.00000  Uiso   1.00
H337   H     0.45432   0.36948   0.73631   0.00000  Uiso   1.00
H338   H     0.54856   0.48466   0.70272   0.00000  Uiso   1.00
H339   H     0.55279   0.65472   0.33829   0.00000  Uiso   1.00
H340   H     0.58854   0.58452   0.40970   0.00000  Uiso   1.00
H341   H     0.47514   0.55786   0.40984   0.00000  Uiso   1.00
H342   H     0.57476   0.67398   0.48510   0.00000  Uiso   1.00
H343   H     0.58181   0.61453   0.57562   0.00000  Uiso   1.00
H344   H     0.61815   0.74233   0.54896   0.00000  Uiso   1.00
H345   H     0.36742   0.57810   0.67552   0.00000  Uiso   1.00
H346   H     0.47524   0.68368   0.68375   0.00000  Uiso   1.00
H347   H     0.46979   0.56801   0.68745   0.00000  Uiso   1.00
H348   H     0.35212   0.79098   0.13760   0.00000  Uiso   1.00
H349   H     0.28851   0.70088   0.20875   0.00000  Uiso   1.00
H350   H     0.37830   0.69541   0.15955   0.00000  Uiso   1.00
H351   H     0.38059   0.76455   0.54366   0.00000  Uiso   1.00
H352   H     0.45361   0.78640   0.46133   0.00000  Uiso   1.00
H353   H     0.51052   0.82179   0.54616   0.00000  Uiso   1.00
H354   H     0.48023   0.72947   0.36667   0.00000  Uiso   1.00
H355   H     0.38965   0.63634   0.31747   0.00000  Uiso   1.00
H356   H     0.36283   0.70511   0.36299   0.00000  Uiso   1.00
H357   H     0.47505   0.96219   0.25286   0.00000  Uiso   1.00
H358   H     0.45698   0.89703   0.34218   0.00000  Uiso   1.00
H359   H     0.35888   0.87850   0.27645   0.00000  Uiso   1.00
H360   H     0.49379   0.84141   0.64918   0.00000  Uiso   1.00
H361   H     0.55654   0.96828   0.64800   0.00000  Uiso   1.00
H362   H     0.45538   0.90583   0.70698   0.00000  Uiso   1.00
H363   H     0.48585   0.71176   0.80463   0.00000  Uiso   1.00
H364   H     0.45323   0.78929   0.83555   0.00000  Uiso   1.00
H365   H     0.54539   0.77615   0.87850   0.00000  Uiso   1.00
H366   H     0.64475   0.76628   0.72983   0.00000  Uiso   1.00
H367   H     0.73714   0.87568   0.74596   0.00000  Uiso   1.00
H368   H     0.67875   0.86723   0.65901   0.00000  Uiso   1.00
H369   H     0.77136  -0.17496   0.47453   0.00000  Uiso   1.00
H370   H     0.79566  -0.06651   0.50725   0.00000  Uiso   1.00
H371   H     0.88790  -0.07419   0.46771   0.00000  Uiso   1.00
H372   H     0.90037   0.12872   0.46295   0.00000  Uiso   1.00
H373   H     0.89349   0.04547   0.54731   0.00000  Uiso   1.00
H374   H     0.98316   0.07219   0.48906   0.00000  Uiso   1.00
H375   H     0.62395   0.82710   0.36774   0.00000  Uiso   1.00
H376   H     0.64030   0.93898   0.31984   0.00000  Uiso   1.00
H377   H     0.64346   0.92023   0.42042   0.00000  Uiso   1.00
H378   H     0.72912   0.03909   0.49693   0.00000  Uiso   1.00
H379   H     0.61929   0.00110   0.52170   0.00000  Uiso   1.00
H380   H     0.70033   0.01048   0.59472   0.00000  Uiso   1.00
H381   H     0.55853   0.11852   0.58963   0.00000  Uiso   1.00
H382   H     0.58769   0.19714   0.49864   0.00000  Uiso   1.00
H383   H     0.61735   0.25052   0.57207   0.00000  Uiso   1.00
H384   H     0.69702   0.34661   0.80577   0.00000  Uiso   1.00
H385   H     0.69002   0.33852   0.90205   0.00000  Uiso   1.00
H386   H     0.60106   0.24571   0.85924   0.00000  Uiso   1.00
H387   H     0.82894   0.02657   0.66752   0.00000  Uiso   1.00
H388   H     0.78510   0.05939   0.73513   0.00000  Uiso   1.00
H389   H     0.90002   0.07432   0.74293   0.00000  Uiso   1.00
H390   H     0.90690   0.58493   0.80127   0.00000  Uiso   1.00
H391   H     1.00374   0.67408   0.75079   0.00000  Uiso   1.00
H392   H     1.01711   0.66177   0.84535   0.00000  Uiso   1.00
H393   H     0.91424   0.64266   0.93917   0.00000  Uiso   1.00
H394   H     0.87520   0.52595   0.91868   0.00000  Uiso   1.00
H395   H     0.94555   0.54995   0.99762   0.00000  Uiso   1.00
H396   H     0.68714   0.36441   0.46086   0.00000  Uiso   1.00
H397   H     0.63609   0.43569   0.40132   0.00000  Uiso   1.00
H398   H     0.56626   0.33354   0.47227   0.00000  Uiso   1.00
H399   H     0.54964   0.38699   0.87133   0.00000  Uiso   1.00
H400   H     0.49609   0.46530   0.83806   0.00000  Uiso   1.00
H401   H     0.49120   0.40942   0.93442   0.00000  Uiso   1.00
H402   H     0.69003   0.51275   0.79402   0.00000  Uiso   1.00
H403   H     0.78241   0.60987   0.83465   0.00000  Uiso   1.00
H404   H     0.69297   0.62681   0.78366   0.00000  Uiso   1.00
H405   H     0.54922   0.62760   0.92121   0.00000  Uiso   1.00
H406   H     0.65091   0.69873   0.86981   0.00000  Uiso   1.00
H407   H     0.66662   0.67652   0.96472   0.00000  Uiso   1.00
H408   H     0.90807   0.63179   0.59493   0.00000  Uiso   1.00
H409   H     0.94856   0.57797   0.66936   0.00000  Uiso   1.00
H410   H     0.83389   0.58089   0.67616   0.00000  Uiso   1.00
H411   H     0.61812   0.71291   0.12112   0.00000  Uiso   1.00
H412   H     0.62349   0.82482   0.06739   0.00000  Uiso   1.00
H413   H     0.52407   0.73241   0.12265   0.00000  Uiso   1.00
H414   H     0.69394   0.82737   0.95806   0.00000  Uiso   1.00
H415   H     0.79076   0.93663   0.91825   0.00000  Uiso   1.00
H416   H     0.71874   0.94267   0.98972   0.00000  Uiso   1.00
H417   H     0.94414   0.77101   0.42267   0.00000  Uiso   1.00
H418   H     0.94041   0.66359   0.47675   0.00000  Uiso   1.00
H419   H     0.87981   0.72770   0.50005   0.00000  Uiso   1.00
loop_
_geom_bond_atom_site_label_1
_geom_bond_atom_site_label_2
_geom_bond_distance
_geom_bond_site_symmetry_2
_ccdc_geom_bond_type
Si1    C52     1.848   .     S
Si1    C53     1.862   .     S
Si1    C54     1.856   1_545 S
Si1    O82     1.617   1_545 S
Si2    O59     1.654   .     S
Si2    O66     1.611   .     S
Si2    O129    1.639   1_455 S
Si2    O139    1.570   1_455 S
Si3    C55     1.828   .     S
Si3    O60     1.633   .     S
Si3    C56     1.877   1_545 S
Si3    C57     1.865   1_545 S
Si4    C58     1.830   .     S
Si4    O72     1.604   .     S
Si4    C135    1.820   1_455 S
Si4    O145    1.548   1_455 S
Si5    O59     1.629   .     S
Si5    O60     1.573   .     S
Si5    C61     1.830   .     S
Si5    O73     1.588   .     S
Si6    C62     1.859   .     S
Si6    O103    1.639   .     S
Si6    C63     1.910   1_545 S
Si6    C93     1.905   1_545 S
Si7    C64     1.826   .     S
Si7    O75     1.598   .     S
Si7    C65     1.813   1_455 S
Si7    O132    1.612   1_455 S
Si8    O66     1.616   .     S
Si8    C67     1.907   .     S
Si8    C68     1.869   .     S
Si8    C69     1.859   .     S
Si9    C70     1.764   .     S
Si9    C71     1.898   .     S
Si9    O150    1.625   1_455 S
Si9    O161    1.580   1_455 S
Si10   O72     1.611   .     S
Si10   O73     1.639   .     S
Si10   C74     1.786   .     S
Si10   O110    1.635   .     S
Si11   O79     1.702   .     S
Si11   O83     1.620   .     S
Si11   O158    1.659   1_455 S
Si11   O171    1.683   1_455 S
Si12   O75     1.618   .     S
Si12   C76     1.863   .     S
Si12   C77     1.853   .     S
Si12   O80     1.635   .     S
Si13   C78     1.894   .     S
Si13   O87     1.637   .     S
Si13   C153    1.939   1_455 S
Si13   O166    1.632   1_455 S
Si14   O79     1.657   .     S
Si14   O80     1.619   .     S
Si14   O88     1.620   .     S
Si14   O111    1.662   .     S
Si15   C81     1.881   .     S
Si15   O82     1.555   .     S
Si15   O177    1.569   1_455 S
Si15   O188    1.621   1_455 S
Si16   O83     1.614   .     S
Si16   C84     1.922   .     S
Si16   C85     1.890   .     S
Si16   C86     1.854   .     S
Si17   O87     1.584   .     S
Si17   O88     1.597   .     S
Si17   C89     1.864   .     S
Si17   C90     1.823   .     S
Si18   C91     1.866   .     S
Si18   C92     1.834   .     S
Si18   C94     1.830   1_455 S
Si18   O181    1.617   1_455 S
Si19   C95     1.882   .     S
Si19   O130    1.597   .     S
Si19   C96     1.908   1_545 S
Si19   C97     1.849   1_545 S
Si20   C98     1.861   .     S
Si20   C99     1.834   .     S
Si20   C100    1.811   .     S
Si20   O131    1.588   .     S
Si21   C101    1.843   .     S
Si21   O142    1.589   .     S
Si21   C102    1.861   1_545 S
Si21   O127    1.551   1_545 S
Si22   O103    1.596   .     S
Si22   C104    1.943   .     S
Si22   C105    1.876   .     S
Si22   C106    1.843   .     S
Si23   C107    1.862   .     S
Si23   C108    1.807   .     S
Si23   C109    1.885   .     S
Si23   O151    1.627   .     S
Si24   O110    1.606   .     S
Si24   O111    1.647   .     S
Si24   O114    1.593   .     S
Si24   O117    1.634   .     S
Si25   C112    1.782   .     S
Si25   C113    1.903   .     S
Si25   C118    1.805   .     S
Si25   O152    1.549   .     S
Si26   O114    1.647   .     S
Si26   C115    1.852   .     S
Si26   C116    1.859   .     S
Si26   O160    1.578   .     S
Si27   O117    1.598   .     S
Si27   C119    1.806   .     S
Si27   C120    1.874   .     S
Si27   C122    1.907   .     S
Si28   C121    1.926   .     S
Si28   C123    1.855   .     S
Si28   C124    1.819   .     S
Si28   O180    1.534   .     S
Si29   C125    1.891   .     S
Si29   C126    1.892   .     S
Si29   O127    1.582   .     S
Si29   C128    1.891   .     S
Si30   O129    1.668   .     S
Si30   O133    1.644   .     S
Si30   O179    1.674   1_545 S
Si30   O183    1.622   1_545 S
Si31   O130    1.595   .     S
Si31   O131    1.595   .     S
Si31   O140    1.638   .     S
Si31   O148    1.574   .     S
Si32   O133    1.674   .     S
Si32   O149    1.673   .     S
Si32   O132    1.601   1_554 S
Si32   O143    1.567   1_554 S
Si33   C134    1.743   .     S
Si33   O141    1.595   .     S
Si33   C136    1.836   1_545 S
Si33   O191    1.585   1_545 S
Si34   C137    1.897   .     S
Si34   C138    1.882   .     S
Si34   O146    1.577   .     S
Si34   O156    1.589   .     S
Si35   O139    1.561   .     S
Si35   O140    1.590   .     S
Si35   O141    1.642   .     S
Si35   O157    1.665   .     S
Si36   O142    1.631   .     S
Si36   O143    1.602   .     S
Si36   C144    1.870   .     S
Si36   O164    1.599   .     S
Si37   O145    1.600   .     S
Si37   O146    1.598   .     S
Si37   C147    1.861   .     S
Si37   O165    1.583   .     S
Si38   O148    1.586   .     S
Si38   O149    1.621   .     S
Si38   O150    1.605   .     S
Si38   O155    1.594   .     S
Si39   O151    1.555   .     S
Si39   O152    1.603   .     S
Si39   O162    1.630   .     S
Si39   O175    1.603   .     S
Si40   O155    1.617   .     S
Si40   O176    1.634   .     S
Si40   C154    1.783   1_554 S
Si40   O168    1.562   1_554 S
Si41   O156    1.552   .     S
Si41   O157    1.606   .     S
Si41   O158    1.701   .     S
Si41   O163    1.643   .     S
Si42   C159    1.783   .     S
Si42   O160    1.693   .     S
Si42   O172    1.600   .     S
Si42   O185    1.592   .     S
Si43   O161    1.600   .     S
Si43   O162    1.595   .     S
Si43   O163    1.620   .     S
Si43   O186    1.632   .     S
Si44   O164    1.599   .     S
Si44   O165    1.615   .     S
Si44   O166    1.521   .     S
Si44   O173    1.606   .     S
Si45   C167    1.857   .     S
Si45   O168    1.587   .     S
Si45   C169    1.823   .     S
Si45   C170    1.813   .     S
Si46   O171    1.617   .     S
Si46   O172    1.617   .     S
Si46   O173    1.551   .     S
Si46   C174    1.854   .     S
Si47   O175    1.587   .     S
Si47   O176    1.624   .     S
Si47   O177    1.556   .     S
Si47   O182    1.636   .     S
Si48   C178    1.839   .     S
Si48   O179    1.665   .     S
Si48   O180    1.643   .     S
Si48   O189    1.585   .     S
Si49   O182    1.615   .     S
Si49   O183    1.623   .     S
Si49   O181    1.617   1_554 S
Si49   C184    1.920   1_554 S
Si50   O185    1.671   .     S
Si50   O186    1.660   .     S
Si50   C187    1.797   .     S
Si50   O190    1.673   .     S
Si51   O188    1.539   .     S
Si51   O189    1.615   .     S
Si51   O190    1.624   .     S
Si51   O191    1.583   .     S
C52    H192    1.119   .     S
C52    H193    1.091   .     S
C52    H194    1.053   .     S
C53    H195    1.101   .     S
C53    H196    1.139   .     S
C53    H197    1.129   .     S
C54    H198    1.135   .     S
C54    H199    1.101   .     S
C54    H200    1.114   .     S
C54    Si1     1.856   1_565 S
C55    H201    1.107   .     S
C55    H202    1.041   .     S
C55    H203    1.122   .     S
C56    H204    1.062   .     S
C56    H205    1.094   .     S
C56    H206    1.190   .     S
C56    Si3     1.877   1_565 S
C57    H207    1.105   .     S
C57    H208    1.138   .     S
C57    H209    1.053   .     S
C57    Si3     1.865   1_565 S
C58    H210    1.121   .     S
C58    H211    1.119   .     S
C58    H212    1.058   .     S
C61    H213    1.127   .     S
C61    H214    1.121   .     S
C61    H215    1.138   .     S
C62    H216    1.065   .     S
C62    H217    1.072   .     S
C62    H218    1.102   .     S
C63    H219    1.052   .     S
C63    H220    1.078   .     S
C63    H221    1.137   .     S
C63    Si6     1.910   1_565 S
C64    H222    1.172   .     S
C64    H223    1.112   .     S
C64    H224    1.118   .     S
C65    H225    1.093   .     S
C65    H226    1.080   .     S
C65    H227    1.126   .     S
C65    Si7     1.813   1_655 S
C67    H228    1.129   .     S
C67    H229    1.098   .     S
C67    H230    1.153   .     S
C68    H231    1.114   .     S
C68    H232    1.081   .     S
C68    H233    1.076   .     S
C69    H234    1.106   .     S
C69    H235    1.098   .     S
C69    H236    1.139   .     S
C70    H237    1.143   .     S
C70    H238    1.115   .     S
C70    H239    1.088   .     S
C71    H240    1.107   .     S
C71    H241    1.094   .     S
C71    H242    1.102   .     S
C74    H243    1.090   .     S
C74    H244    1.106   .     S
C74    H245    1.052   .     S
C76    H246    1.140   .     S
C76    H247    1.086   .     S
C76    H248    1.098   .     S
C77    H249    1.107   .     S
C77    H250    1.115   .     S
C77    H251    1.135   .     S
C78    H252    1.182   .     S
C78    H253    1.135   .     S
C78    H254    1.118   .     S
C81    H255    1.123   .     S
C81    H256    1.063   .     S
C81    H257    1.112   .     S
O82    Si1     1.617   1_565 S
C84    H258    1.083   .     S
C84    H259    1.099   .     S
C84    H260    1.087   .     S
C85    H261    1.125   .     S
C85    H262    1.131   .     S
C85    H263    1.082   .     S
C86    H264    1.068   .     S
C86    H265    1.117   .     S
C86    H266    1.084   .     S
C89    H267    1.092   .     S
C89    H268    1.088   .     S
C89    H269    1.098   .     S
C90    H270    1.122   .     S
C90    H271    1.149   .     S
C90    H272    1.088   .     S
C91    H273    1.096   .     S
C91    H274    1.079   .     S
C91    H275    1.123   .     S
C92    H276    1.153   .     S
C92    H277    1.114   .     S
C92    H278    1.111   .     S
C93    H279    1.106   .     S
C93    H280    1.109   .     S
C93    H281    1.057   .     S
C93    Si6     1.905   1_565 S
C94    H282    1.077   .     S
C94    H283    1.121   .     S
C94    H284    1.068   .     S
C94    Si18    1.830   1_655 S
C95    H285    1.109   .     S
C95    H286    1.076   .     S
C95    H287    1.127   .     S
C96    H288    1.101   .     S
C96    H289    1.088   .     S
C96    H290    1.082   .     S
C96    Si19    1.908   1_565 S
C97    H291    1.068   .     S
C97    H292    1.109   .     S
C97    H293    1.111   .     S
C97    Si19    1.849   1_565 S
C98    H294    1.031   .     S
C98    H295    1.097   .     S
C98    H296    1.130   .     S
C99    H297    1.092   .     S
C99    H298    1.102   .     S
C99    H299    1.108   .     S
C100   H300    1.147   .     S
C100   H301    1.078   .     S
C100   H302    1.073   .     S
C101   H303    1.128   .     S
C101   H304    1.103   .     S
C101   H305    1.118   .     S
C102   H306    1.134   .     S
C102   H307    1.114   .     S
C102   H308    1.062   .     S
C102   Si21    1.861   1_565 S
C104   H309    1.101   .     S
C104   H310    1.124   .     S
C104   H311    1.077   .     S
C105   H312    1.082   .     S
C105   H313    1.141   .     S
C105   H314    1.095   .     S
C106   H315    1.107   .     S
C106   H316    1.052   .     S
C106   H317    1.133   .     S
C107   H318    1.101   .     S
C107   H319    1.079   .     S
C107   H320    1.085   .     S
C108   H321    1.114   .     S
C108   H322    1.119   .     S
C108   H323    1.114   .     S
C109   H324    1.153   .     S
C109   H325    1.104   .     S
C109   H326    1.036   .     S
C112   H327    1.105   .     S
C112   H328    1.129   .     S
C112   H329    1.092   .     S
C113   H330    1.116   .     S
C113   H331    1.134   .     S
C113   H332    1.138   .     S
C115   H333    1.096   .     S
C115   H334    1.065   .     S
C115   H335    1.144   .     S
C116   H336    1.134   .     S
C116   H337    1.111   .     S
C116   H338    1.140   .     S
C118   H339    1.166   .     S
C118   H340    1.113   .     S
C118   H341    1.042   .     S
C119   H342    1.055   .     S
C119   H343    1.081   .     S
C119   H344    1.109   .     S
C120   H345    1.120   .     S
C120   H346    1.126   .     S
C120   H347    1.115   .     S
C121   H348    1.070   .     S
C121   H349    1.119   .     S
C121   H350    1.060   .     S
C122   H351    1.177   .     S
C122   H352    1.113   .     S
C122   H353    1.124   .     S
C123   H354    1.061   .     S
C123   H355    1.095   .     S
C123   H356    1.110   .     S
C124   H357    1.120   .     S
C124   H358    1.114   .     S
C124   H359    1.111   .     S
C125   H360    1.115   .     S
C125   H361    1.116   .     S
C125   H362    1.097   .     S
C126   H363    1.097   .     S
C126   H364    1.095   .     S
C126   H365    1.077   .     S
O127   Si21    1.551   1_565 S
C128   H366    1.123   .     S
C128   H367    1.093   .     S
C128   H368    1.130   .     S
O129   Si2     1.639   1_655 S
O132   Si7     1.612   1_655 S
O132   Si32    1.601   1_556 S
C134   H369    1.128   .     S
C134   H370    1.077   .     S
C134   H371    1.117   .     S
C135   H372    1.176   .     S
C135   H373    1.047   .     S
C135   H374    1.102   .     S
C135   Si4     1.820   1_655 S
C136   H375    1.090   .     S
C136   H376    1.118   .     S
C136   H377    1.145   .     S
C136   Si33    1.836   1_565 S
C137   H378    1.080   .     S
C137   H379    1.040   .     S
C137   H380    1.184   .     S
C138   H381    1.132   .     S
C138   H382    1.076   .     S
C138   H383    1.109   .     S
O139   Si2     1.570   1_655 S
O143   Si32    1.567   1_556 S
C144   H384    1.093   .     S
C144   H385    1.083   .     S
C144   H386    1.078   .     S
O145   Si4     1.548   1_655 S
C147   H387    1.101   .     S
C147   H388    1.063   .     S
C147   H389    1.140   .     S
O150   Si9     1.625   1_655 S
C153   H390    1.145   .     S
C153   H391    1.054   .     S
C153   H392    1.096   .     S
C153   Si13    1.939   1_655 S
C154   H393    1.106   .     S
C154   H394    1.072   .     S
C154   H395    1.149   .     S
C154   Si40    1.783   1_556 S
O158   Si11    1.659   1_655 S
C159   H396    1.159   .     S
C159   H397    1.133   .     S
C159   H398    1.091   .     S
O161   Si9     1.580   1_655 S
O166   Si13    1.632   1_655 S
C167   H399    1.098   .     S
C167   H400    1.164   .     S
C167   H401    1.141   .     S
O168   Si40    1.562   1_556 S
C169   H402    1.122   .     S
C169   H403    1.042   .     S
C169   H404    1.043   .     S
C170   H405    1.116   .     S
C170   H406    1.068   .     S
C170   H407    1.145   .     S
O171   Si11    1.683   1_655 S
C174   H408    1.121   .     S
C174   H409    1.110   .     S
C174   H410    1.124   .     S
O177   Si15    1.569   1_655 S
C178   H411    1.116   .     S
C178   H412    1.038   .     S
C178   H413    1.157   .     S
O179   Si30    1.674   1_565 S
O181   Si18    1.617   1_655 S
O181   Si49    1.617   1_556 S
O183   Si30    1.622   1_565 S
C184   H414    1.101   .     S
C184   H415    1.120   .     S
C184   H416    1.141   .     S
C184   Si49    1.920   1_556 S
C187   H417    1.090   .     S
C187   H418    1.107   .     S
C187   H419    1.072   .     S
O188   Si15    1.621   1_655 S
O191   Si33    1.585   1_565 S
