data_333-15-11-10-15-30-20
_audit_creation_date              2025-03-07
_audit_creation_method            'Materials Studio'
_symmetry_space_group_name_H-M    'P1'
_symmetry_Int_Tables_number       1
_symmetry_cell_setting            triclinic
loop_
_symmetry_equiv_pos_as_xyz
  x,y,z
_cell_length_a                    15.3527
_cell_length_b                    18.0706
_cell_length_c                    19.6044
_cell_angle_alpha                 96.4878
_cell_angle_beta                  81.8946
_cell_angle_gamma                 122.8110
loop_
_atom_site_label
_atom_site_type_symbol
_atom_site_fract_x
_atom_site_fract_y
_atom_site_fract_z
_atom_site_U_iso_or_equiv
_atom_site_adp_type
_atom_site_occupancy
Si1    Si    0.23227  -0.03127   0.16847   0.00000  Uiso   1.00
Si2    Si    0.25797   0.30365   0.29214   0.00000  Uiso   1.00
Si3    Si    0.18356  -0.02563   0.45708   0.00000  Uiso   1.00
Si4    Si    0.00291   0.05627   0.86274   0.00000  Uiso   1.00
Si5    Si    0.10944   0.36117   0.27491   0.00000  Uiso   1.00
Si6    Si    0.11812   0.50574  -0.07666   0.00000  Uiso   1.00
Si7    Si    0.02733   0.59242   0.55241   0.00000  Uiso   1.00
Si8    Si    0.14884   0.43314   0.71726   0.00000  Uiso   1.00
Si9    Si    0.17131   0.58873   0.64805   0.00000  Uiso   1.00
Si10   Si    0.02289   0.51831   0.06810   0.00000  Uiso   1.00
Si11   Si    0.05365   0.83789   0.26724   0.00000  Uiso   1.00
Si12   Si    0.20832   0.72397   0.45291   0.00000  Uiso   1.00
Si13   Si   -0.00519   0.81597   0.54300   0.00000  Uiso   1.00
Si14   Si    0.20691   0.83957   0.34998   0.00000  Uiso   1.00
Si15   Si   -0.10989   0.72412   0.87882   0.00000  Uiso   1.00
Si16   Si    0.14512   0.83513   0.63996   0.00000  Uiso   1.00
Si17   Si    0.54317  -0.05307   0.12263   0.00000  Uiso   1.00
Si18   Si    0.52198   0.02615   0.51672   0.00000  Uiso   1.00
Si19   Si    0.31990   0.15181   0.53765   0.00000  Uiso   1.00
Si20   Si    0.40679   0.19769   0.67927   0.00000  Uiso   1.00
Si21   Si    0.34450   0.38034   0.02753   0.00000  Uiso   1.00
Si22   Si    0.42866   0.52261  -0.08125   0.00000  Uiso   1.00
Si23   Si    0.47908   0.34211   0.47684   0.00000  Uiso   1.00
Si24   Si    0.33736   0.57475   0.54927   0.00000  Uiso   1.00
Si25   Si    0.31051   0.54835   0.82503   0.00000  Uiso   1.00
Si26   Si    0.49344   0.57158   0.63360   0.00000  Uiso   1.00
Si27   Si    0.42124   0.66032   0.02658   0.00000  Uiso   1.00
Si28   Si    0.38813   0.85220   0.25004   0.00000  Uiso   1.00
Si29   Si    0.48769   0.83910  -0.02183   0.00000  Uiso   1.00
Si30   Si    0.53226   0.69011   0.46698   0.00000  Uiso   1.00
Si31   Si    0.34365   0.84493   0.56601   0.00000  Uiso   1.00
Si32   Si    0.49098   0.70497   0.73492   0.00000  Uiso   1.00
Si33   Si    0.40039   0.93344   0.91649   0.00000  Uiso   1.00
Si34   Si    0.48572   0.82773   0.64844   0.00000  Uiso   1.00
Si35   Si    0.87378   0.02171   0.00207   0.00000  Uiso   1.00
Si36   Si    0.85918  -0.05981   0.46998   0.00000  Uiso   1.00
Si37   Si    0.85770   0.04990   0.36647   0.00000  Uiso   1.00
Si38   Si    0.82989  -0.05665   0.76608   0.00000  Uiso   1.00
Si39   Si    0.84289   0.08922   0.69983   0.00000  Uiso   1.00
Si40   Si    0.65016   0.53108   0.54148   0.00000  Uiso   1.00
Si41   Si    0.88205   0.53843   0.33399   0.00000  Uiso   1.00
Si42   Si    0.82123   0.39240   0.67883   0.00000  Uiso   1.00
Si43   Si    0.60186   0.50225   0.84029   0.00000  Uiso   1.00
Si44   Si    0.81124   0.54003   0.62878   0.00000  Uiso   1.00
Si45   Si    0.92886   0.74912   0.13997   0.00000  Uiso   1.00
Si46   Si    0.84295   0.65886   0.44087   0.00000  Uiso   1.00
Si47   Si    0.67415   0.81867   0.57431   0.00000  Uiso   1.00
Si48   Si    0.86851   0.80973   0.36666   0.00000  Uiso   1.00
Si49   Si    0.77708   0.64660   0.74794   0.00000  Uiso   1.00
Si50   Si    0.63470   0.82821   0.85058   0.00000  Uiso   1.00
Si51   Si    0.81239   0.79385   0.65804   0.00000  Uiso   1.00
C52    C     0.20938   0.02757   0.11053   0.00000  Uiso   1.00
C53    C     0.34925   0.05388   0.21232   0.00000  Uiso   1.00
C54    C     0.25130   0.87876   0.11652   0.00000  Uiso   1.00
C55    C     0.37349   0.41432   0.29926   0.00000  Uiso   1.00
C56    C     1.28196   0.23397   0.22654   0.00000  Uiso   1.00
C57    C     0.16974   0.02679   0.38920   0.00000  Uiso   1.00
C58    C     0.11373   0.04781   0.87291   0.00000  Uiso   1.00
O59    O     0.16489   0.30762   0.26614   0.00000  Uiso   1.00
C60    C    -0.01583   0.29607   0.23872   0.00000  Uiso   1.00
C61    C     0.20044   0.47276   0.23761   0.00000  Uiso   1.00
C62    C     0.07657   0.38274   0.36696   0.00000  Uiso   1.00
C63    C     0.08191   0.39071  -0.06786   0.00000  Uiso   1.00
C64    C     0.02585   0.51097   0.87544   0.00000  Uiso   1.00
C65    C     0.98585   0.49860   0.49461   0.00000  Uiso   1.00
C66    C     0.03537   0.17053   0.87376   0.00000  Uiso   1.00
C67    C     0.02453   0.34417   0.76155   0.00000  Uiso   1.00
C68    C     0.18172   0.36899   0.64925   0.00000  Uiso   1.00
O69    O     0.08065   0.59392   0.61793   0.00000  Uiso   1.00
O70    O     0.12646   0.49823   0.68194   0.00000  Uiso   1.00
C71    C     0.21875   0.67168   0.72145   0.00000  Uiso   1.00
C72    C    -0.10057   0.50231   0.04161   0.00000  Uiso   1.00
O73    O     0.10293   0.54247  -0.00099   0.00000  Uiso   1.00
C74    C     0.07858   0.61307   0.13400   0.00000  Uiso   1.00
O75    O     0.14298   0.92704   0.22905   0.00000  Uiso   1.00
O76    O     0.10461   0.67805   0.50580   0.00000  Uiso   1.00
C77    C     0.24189   0.63643   0.42648   0.00000  Uiso   1.00
O78    O     0.07313   0.91090   0.50544   0.00000  Uiso   1.00
O79    O     0.10602   0.80679   0.30954   0.00000  Uiso   1.00
O80    O     0.19315   0.75866   0.38757   0.00000  Uiso   1.00
O81    O     0.22109   0.91204   0.41322   0.00000  Uiso   1.00
C82    C    -0.03623   0.66458   0.87583   0.00000  Uiso   1.00
C83    C    -0.00927   0.83968   0.89198   0.00000  Uiso   1.00
C84    C     0.79238   0.68051   0.95453   0.00000  Uiso   1.00
O85    O     0.06764   0.79967   0.57729   0.00000  Uiso   1.00
C86    C     0.06846   0.77011   0.71589   0.00000  Uiso   1.00
C87    C     0.18864   0.95039   0.66525   0.00000  Uiso   1.00
C88    C     0.56446   0.05841   0.10682   0.00000  Uiso   1.00
C89    C     0.65949  -0.02653   0.16413   0.00000  Uiso   1.00
C90    C     0.48697   0.05284   0.43700   0.00000  Uiso   1.00
C91    C     0.59928   0.12793   0.57155   0.00000  Uiso   1.00
C92    C     0.59661   0.97394   0.48858   0.00000  Uiso   1.00
O93    O     0.27634   0.05501   0.49744   0.00000  Uiso   1.00
C94    C     0.21268   0.17192   0.55761   0.00000  Uiso   1.00
O95    O     0.35251   0.14573   0.60861   0.00000  Uiso   1.00
C96    C     0.43601   0.12765   0.72256   0.00000  Uiso   1.00
C97    C     0.30967   0.20983   0.73954   0.00000  Uiso   1.00
C98    C     0.52752   0.30760   0.65402   0.00000  Uiso   1.00
C99    C     0.44532   0.45235   0.08742   0.00000  Uiso   1.00
C100   C     0.20645   0.32916   0.06965   0.00000  Uiso   1.00
C101   C     0.35479   0.28073  -0.00690   0.00000  Uiso   1.00
O102   O     0.36529   0.43828  -0.03488   0.00000  Uiso   1.00
O103   O     0.41961   0.23980   0.50355   0.00000  Uiso   1.00
C104   C     0.52040   0.33127   0.38510   0.00000  Uiso   1.00
C105   C     0.38990   0.37829   0.48275   0.00000  Uiso   1.00
C106   C     0.24333   0.47169   0.50216   0.00000  Uiso   1.00
O107   O     0.26989   0.61157   0.59271   0.00000  Uiso   1.00
O108   O     0.24622   0.48150   0.76309   0.00000  Uiso   1.00
O109   O     0.36616   0.50865   0.85657   0.00000  Uiso   1.00
O110   O     0.23073   0.55782   0.88222   0.00000  Uiso   1.00
O111   O     0.39880   0.55256   0.59456   0.00000  Uiso   1.00
C112   C     0.44955   0.46884   0.68095   0.00000  Uiso   1.00
C113   C     0.29483   0.57174   0.07058   0.00000  Uiso   1.00
O114   O     0.44778   0.60459  -0.03258   0.00000  Uiso   1.00
C115   C     0.50967   0.70291   0.09191   0.00000  Uiso   1.00
C116   C    -0.00647   0.41547   0.10436   0.00000  Uiso   1.00
C117   C     0.31537   0.73228   0.22964   0.00000  Uiso   1.00
C118   C     0.48272   0.88364   0.31262   0.00000  Uiso   1.00
O119   O     0.44046   0.89692   0.17741   0.00000  Uiso   1.00
O120   O     0.31033   0.88161   0.29585   0.00000  Uiso   1.00
O121   O     0.42373   0.73755  -0.01167   0.00000  Uiso   1.00
O122   O     0.53869   0.88865   0.04829   0.00000  Uiso   1.00
O123   O     0.41742   0.64524   0.50061   0.00000  Uiso   1.00
C124   C     0.55298   0.60665   0.41677   0.00000  Uiso   1.00
C125   C     0.54325   0.77210   0.41110   0.00000  Uiso   1.00
O126   O     0.29975   0.79848   0.49354   0.00000  Uiso   1.00
O127   O     0.41429   0.95009   0.55555   0.00000  Uiso   1.00
O128   O     0.24097   0.82270   0.61918   0.00000  Uiso   1.00
O129   O     0.40253   0.63967   0.79133   0.00000  Uiso   1.00
O130   O     0.53422   0.65446   0.68305   0.00000  Uiso   1.00
C131   C     0.31456   0.87208   0.84890   0.00000  Uiso   1.00
O132   O     0.41641   0.87176   0.96037   0.00000  Uiso   1.00
C133   C     0.52962   1.02631   0.88698   0.00000  Uiso   1.00
C134   C     0.34496   0.99292   0.96697   0.00000  Uiso   1.00
O135   O     0.40918   0.81225   0.59217   0.00000  Uiso   1.00
O136   O     0.44288   0.74395   0.69391   0.00000  Uiso   1.00
C137   C     0.49926   0.91965   0.70867   0.00000  Uiso   1.00
O138   O     0.91628   0.00701   0.92296   0.00000  Uiso   1.00
C139   C     0.78498  -0.09466   0.02881   0.00000  Uiso   1.00
C140   C     0.97269   0.07708   0.06447   0.00000  Uiso   1.00
C141   C     0.80672   0.08015   0.99440   0.00000  Uiso   1.00
C142   C     0.97478   0.03172   0.50685   0.00000  Uiso   1.00
C143   C     1.20412   0.24140   0.37431   0.00000  Uiso   1.00
C144   C     0.96376   0.06127   0.29963   0.00000  Uiso   1.00
C145   C     0.75313   0.03148   0.32084   0.00000  Uiso   1.00
O146   O     0.82296  -0.02784   0.41507   0.00000  Uiso   1.00
C147   C     0.91735   0.15518   0.42073   0.00000  Uiso   1.00
O148   O     0.94580   0.00976   0.79377   0.00000  Uiso   1.00
C149   C     0.98845   0.15776   0.68641   0.00000  Uiso   1.00
C150   C     0.79059   0.08634   0.61835   0.00000  Uiso   1.00
O151   O     0.80590  -0.00637   0.71883   0.00000  Uiso   1.00
O152   O     0.57452   0.42109   0.52154   0.00000  Uiso   1.00
O153   O     0.58155   0.57119   0.57611   0.00000  Uiso   1.00
C154   C     1.01674   0.58171   0.29448   0.00000  Uiso   1.00
C155   C     0.80002   0.53024   0.27081   0.00000  Uiso   1.00
C156   C     0.82191   0.42762   0.37020   0.00000  Uiso   1.00
C157   C     0.70364   0.28655   0.70993   0.00000  Uiso   1.00
C158   C     0.79092   0.13291   0.77464   0.00000  Uiso   1.00
C159   C     0.89010   0.35513   0.61525   0.00000  Uiso   1.00
C160   C     0.89419   0.46280   0.75386   0.00000  Uiso   1.00
C161   C     0.50615   0.38401   0.81776   0.00000  Uiso   1.00
C162   C     0.69336   0.49085   0.88237   0.00000  Uiso   1.00
O163   O     0.53680   0.53190   0.89319   0.00000  Uiso   1.00
O164   O     0.92175   0.59003   0.58172   0.00000  Uiso   1.00
O165   O     0.72150   0.53816   0.59418   0.00000  Uiso   1.00
O166   O     0.78520   0.44678   0.64249   0.00000  Uiso   1.00
C167   C     0.80057   0.64941   0.14114   0.00000  Uiso   1.00
C168   C     1.00826   0.74426   0.06179   0.00000  Uiso   1.00
C169   C     0.91941   0.84721   0.13701   0.00000  Uiso   1.00
O170   O     0.98891   0.76600   0.20633   0.00000  Uiso   1.00
O171   O     0.72812   0.58608   0.47617   0.00000  Uiso   1.00
O172   O     0.88830   0.60258   0.40006   0.00000  Uiso   1.00
O173   O     0.92824   0.72685   0.49309   0.00000  Uiso   1.00
O174   O     0.60772   0.73324   0.52758   0.00000  Uiso   1.00
O175   O     0.76498   0.89581   0.53082   0.00000  Uiso   1.00
O176   O     0.59931   0.85242   0.61130   0.00000  Uiso   1.00
O177   O     0.97148   0.84918   0.31456   0.00000  Uiso   1.00
C178   C     0.76952   0.79340   0.31317   0.00000  Uiso   1.00
O179   O     0.82754   0.71111   0.38968   0.00000  Uiso   1.00
O180   O     0.88536   0.87138   0.43546   0.00000  Uiso   1.00
O181   O     0.66395   0.57344   0.77998   0.00000  Uiso   1.00
O182   O     0.82627   0.59347   0.70296   0.00000  Uiso   1.00
O183   O     0.84467   0.70911   0.80667   0.00000  Uiso   1.00
O184   O     0.57835   0.78502   0.77787   0.00000  Uiso   1.00
C185   C     0.66417   0.75281   0.88678   0.00000  Uiso   1.00
O186   O     0.74528   0.90896   0.83052   0.00000  Uiso   1.00
O187   O     0.57579   0.86013   0.91019   0.00000  Uiso   1.00
O188   O     0.91349   0.82163   0.60098   0.00000  Uiso   1.00
O189   O     0.72025   0.78826   0.62582   0.00000  Uiso   1.00
O190   O     0.77349   0.70102   0.68933   0.00000  Uiso   1.00
O191   O     0.84054   0.86335   0.72347   0.00000  Uiso   1.00
H192   H     0.16941   0.05849   0.14006   0.00000  Uiso   1.00
H193   H     0.16437  -0.01827   0.07067   0.00000  Uiso   1.00
H194   H     0.28891   0.08398   0.08889   0.00000  Uiso   1.00
H195   H     0.40373   0.10460   0.17603   0.00000  Uiso   1.00
H196   H     0.37563   0.01524   0.23008   0.00000  Uiso   1.00
H197   H     0.31550   0.08240   0.25326   0.00000  Uiso   1.00
H198   H     0.33623   0.91385   0.10424   0.00000  Uiso   1.00
H199   H     0.21155   0.85771   0.07047   0.00000  Uiso   1.00
H200   H     0.21825   0.82009   0.14787   0.00000  Uiso   1.00
H201   H     0.37315   0.45012   0.25834   0.00000  Uiso   1.00
H202   H     0.44966   0.41924   0.29700   0.00000  Uiso   1.00
H203   H     0.35791   0.44457   0.34970   0.00000  Uiso   1.00
H204   H     1.21461   0.16444   0.22110   0.00000  Uiso   1.00
H205   H     1.35400   0.23598   0.23740   0.00000  Uiso   1.00
H206   H     1.28928   0.25929   0.17503   0.00000  Uiso   1.00
H207   H     0.09418  -0.01653   0.37206   0.00000  Uiso   1.00
H208   H     0.23167   0.03654   0.34741   0.00000  Uiso   1.00
H209   H     0.18608   0.08769   0.40800   0.00000  Uiso   1.00
H210   H     0.18864   0.11837   0.86767   0.00000  Uiso   1.00
H211   H     0.11222  -0.00140   0.83645   0.00000  Uiso   1.00
H212   H     0.10236   0.02406   0.93007   0.00000  Uiso   1.00
H213   H    -0.04853   0.33547   0.24705   0.00000  Uiso   1.00
H214   H    -0.06758   0.23385   0.26300   0.00000  Uiso   1.00
H215   H    -0.00593   0.27731   0.18358   0.00000  Uiso   1.00
H216   H     0.14592   0.48194   0.21377   0.00000  Uiso   1.00
H217   H     0.25389   0.46708   0.19725   0.00000  Uiso   1.00
H218   H     0.23944   0.52360   0.27879   0.00000  Uiso   1.00
H219   H     0.11708   0.45103   0.38694   0.00000  Uiso   1.00
H220   H     0.08738   0.34440   0.40024   0.00000  Uiso   1.00
H221   H    -0.00926   0.35607   0.37376   0.00000  Uiso   1.00
H222   H     0.10156   0.39270  -0.01739   0.00000  Uiso   1.00
H223   H     0.12691   0.36787  -0.10819   0.00000  Uiso   1.00
H224   H    -0.00569   0.34324  -0.06692   0.00000  Uiso   1.00
H225   H    -0.05321   0.45407   0.89057   0.00000  Uiso   1.00
H226   H     0.05131   0.51806   0.81948   0.00000  Uiso   1.00
H227   H     0.03197   0.57002   0.89778   0.00000  Uiso   1.00
H228   H     0.98681   0.52223   0.44555   0.00000  Uiso   1.00
H229   H     0.90986   0.44382   0.50063   0.00000  Uiso   1.00
H230   H     1.03236   0.47099   0.49302   0.00000  Uiso   1.00
H231   H     0.10992   0.21518   0.84539   0.00000  Uiso   1.00
H232   H     0.05124   0.19123   0.92763   0.00000  Uiso   1.00
H233   H    -0.02173   0.18168   0.86028   0.00000  Uiso   1.00
H234   H     0.04513   0.30074   0.78306   0.00000  Uiso   1.00
H235   H    -0.03349   0.30755   0.72111   0.00000  Uiso   1.00
H236   H    -0.00315   0.36402   0.80620   0.00000  Uiso   1.00
H237   H     0.13289   0.34220   0.60628   0.00000  Uiso   1.00
H238   H     0.19163   0.32402   0.67323   0.00000  Uiso   1.00
H239   H     0.25983   0.40902   0.62216   0.00000  Uiso   1.00
H240   H     0.27453   0.73984   0.70894   0.00000  Uiso   1.00
H241   H     0.25120   0.65108   0.75586   0.00000  Uiso   1.00
H242   H     0.14787   0.66960   0.75160   0.00000  Uiso   1.00
H243   H    -0.13814   0.43845   0.01134   0.00000  Uiso   1.00
H244   H    -0.09155   0.55819   0.01491   0.00000  Uiso   1.00
H245   H    -0.15123   0.49253   0.09036   0.00000  Uiso   1.00
H246   H     0.14579   0.67042   0.10592   0.00000  Uiso   1.00
H247   H     0.11156   0.59478   0.16904   0.00000  Uiso   1.00
H248   H     0.01820   0.62706   0.16110   0.00000  Uiso   1.00
H249   H     0.18532   0.58679   0.39174   0.00000  Uiso   1.00
H250   H     0.23026   0.60833   0.47679   0.00000  Uiso   1.00
H251   H     0.32163   0.66770   0.40119   0.00000  Uiso   1.00
H252   H    -0.03369   0.63655   0.82025   0.00000  Uiso   1.00
H253   H    -0.08455   0.61114   0.91301   0.00000  Uiso   1.00
H254   H     0.04132   0.70514   0.89906   0.00000  Uiso   1.00
H255   H     0.00366   0.86220   0.94718   0.00000  Uiso   1.00
H256   H    -0.04507   0.87466   0.87260   0.00000  Uiso   1.00
H257   H     0.06742   0.86009   0.86075   0.00000  Uiso   1.00
H258   H     0.80363   0.64080   0.98778   0.00000  Uiso   1.00
H259   H     0.71376   0.64408   0.93562   0.00000  Uiso   1.00
H260   H     0.79947   0.73550   0.99075   0.00000  Uiso   1.00
H261   H     0.04722   0.69986   0.70751   0.00000  Uiso   1.00
H262   H     0.00092   0.77626   0.73562   0.00000  Uiso   1.00
H263   H     0.12732   0.80337   0.75572   0.00000  Uiso   1.00
H264   H     0.21858   0.95922   0.71660   0.00000  Uiso   1.00
H265   H     0.12450   0.95940   0.67666   0.00000  Uiso   1.00
H266   H     0.24819   0.99471   0.62732   0.00000  Uiso   1.00
H267   H     0.49344   0.04322   0.08317   0.00000  Uiso   1.00
H268   H     0.63717   0.09241   0.06720   0.00000  Uiso   1.00
H269   H     0.57654   0.10393   0.15293   0.00000  Uiso   1.00
H270   H     0.72942   0.01942   0.12664   0.00000  Uiso   1.00
H271   H     0.65512  -0.08590   0.17525   0.00000  Uiso   1.00
H272   H     0.65497   0.00886   0.21048   0.00000  Uiso   1.00
H273   H     0.41596  -0.00274   0.42111   0.00000  Uiso   1.00
H274   H     0.54831   0.07142   0.39096   0.00000  Uiso   1.00
H275   H     0.47791   0.10963   0.44878   0.00000  Uiso   1.00
H276   H     0.56944   0.17042   0.56909   0.00000  Uiso   1.00
H277   H     0.68290   0.15833   0.54888   0.00000  Uiso   1.00
H278   H     0.59530   0.11127   0.62885   0.00000  Uiso   1.00
H279   H     0.58380   0.94884   0.43260   0.00000  Uiso   1.00
H280   H     0.57147   0.92277   0.52246   0.00000  Uiso   1.00
H281   H     0.68103   1.02114   0.49673   0.00000  Uiso   1.00
H282   H     0.14603   0.12448   0.59189   0.00000  Uiso   1.00
H283   H     0.18980   0.16755   0.50400   0.00000  Uiso   1.00
H284   H     0.25140   0.23921   0.58467   0.00000  Uiso   1.00
H285   H     0.43548   0.08221   0.68110   0.00000  Uiso   1.00
H286   H     0.37259   0.08871   0.76207   0.00000  Uiso   1.00
H287   H     0.51553   0.16614   0.73951   0.00000  Uiso   1.00
H288   H     0.23345   0.14780   0.74049   0.00000  Uiso   1.00
H289   H     0.30796   0.26404   0.72137   0.00000  Uiso   1.00
H290   H     0.33179   0.22764   0.79536   0.00000  Uiso   1.00
H291   H     0.58348   0.34576   0.69200   0.00000  Uiso   1.00
H292   H     0.49955   0.34763   0.63802   0.00000  Uiso   1.00
H293   H     0.57069   0.29575   0.60528   0.00000  Uiso   1.00
H294   H     0.52018   0.48821   0.05555   0.00000  Uiso   1.00
H295   H     0.45705   0.42014   0.12683   0.00000  Uiso   1.00
H296   H     0.42074   0.49828   0.10505   0.00000  Uiso   1.00
H297   H     0.15900   0.30806   0.02417   0.00000  Uiso   1.00
H298   H     0.20086   0.38238   0.10049   0.00000  Uiso   1.00
H299   H     0.18230   0.26869   0.09637   0.00000  Uiso   1.00
H300   H     0.31676   0.25037  -0.05819   0.00000  Uiso   1.00
H301   H     0.30160   0.23090   0.03462   0.00000  Uiso   1.00
H302   H     0.43270   0.28801  -0.00410   0.00000  Uiso   1.00
H303   H     0.54159   0.39392   0.35798   0.00000  Uiso   1.00
H304   H     0.46144   0.27394   0.35585   0.00000  Uiso   1.00
H305   H     0.59438   0.33252   0.37618   0.00000  Uiso   1.00
H306   H     0.40419   0.41325   0.43777   0.00000  Uiso   1.00
H307   H     0.39811   0.42148   0.52733   0.00000  Uiso   1.00
H308   H     0.30552   0.31960   0.48868   0.00000  Uiso   1.00
H309   H     0.24697   0.47436   0.44656   0.00000  Uiso   1.00
H310   H     0.15811   0.45621   0.52150   0.00000  Uiso   1.00
H311   H     0.24182   0.41125   0.50709   0.00000  Uiso   1.00
H312   H     0.51942   0.47836   0.70001   0.00000  Uiso   1.00
H313   H     0.41602   0.41321   0.64508   0.00000  Uiso   1.00
H314   H     0.39041   0.45509   0.72583   0.00000  Uiso   1.00
H315   H     0.24866   0.59785   0.09937   0.00000  Uiso   1.00
H316   H     0.31741   0.53945   0.10552   0.00000  Uiso   1.00
H317   H     0.25430   0.53743   0.02693   0.00000  Uiso   1.00
H318   H     0.58750   0.74829   0.07060   0.00000  Uiso   1.00
H319   H     0.50817   0.64699   0.11249   0.00000  Uiso   1.00
H320   H     0.48771   0.73251   0.13868   0.00000  Uiso   1.00
H321   H     0.06658   0.42022   0.11288   0.00000  Uiso   1.00
H322   H    -0.04992   0.35960   0.06768   0.00000  Uiso   1.00
H323   H    -0.05737   0.39932   0.15402   0.00000  Uiso   1.00
H324   H     0.28408   0.71718   0.17708   0.00000  Uiso   1.00
H325   H     0.24143   0.69237   0.25926   0.00000  Uiso   1.00
H326   H     0.36576   0.70594   0.23708   0.00000  Uiso   1.00
H327   H     0.51773   0.94843   0.33064   0.00000  Uiso   1.00
H328   H     0.54705   0.87821   0.28224   0.00000  Uiso   1.00
H329   H     0.44480   0.84498   0.35726   0.00000  Uiso   1.00
H330   H     0.51578   0.54804   0.45101   0.00000  Uiso   1.00
H331   H     0.63672   0.63270   0.40767   0.00000  Uiso   1.00
H332   H     0.51167   0.58935   0.36909   0.00000  Uiso   1.00
H333   H     0.49410   0.73578   0.37167   0.00000  Uiso   1.00
H334   H     0.62325   0.82209   0.39706   0.00000  Uiso   1.00
H335   H     0.49507   0.79230   0.44447   0.00000  Uiso   1.00
H336   H     0.34345   0.82997   0.82404   0.00000  Uiso   1.00
H337   H     0.31718   0.91668   0.81099   0.00000  Uiso   1.00
H338   H     0.23727   0.83054   0.87197   0.00000  Uiso   1.00
H339   H     0.52327   1.04709   0.83859   0.00000  Uiso   1.00
H340   H     0.58683   1.01028   0.87381   0.00000  Uiso   1.00
H341   H     0.55519   1.07763   0.93193   0.00000  Uiso   1.00
H342   H     0.25995   0.94198   0.97803   0.00000  Uiso   1.00
H343   H     0.36397   1.04494   0.93696   0.00000  Uiso   1.00
H344   H     0.37729   1.01910   1.01612   0.00000  Uiso   1.00
H345   H     0.42529   0.91095   0.72105   0.00000  Uiso   1.00
H346   H     0.54483   0.98481   0.68133   0.00000  Uiso   1.00
H347   H     0.53328   0.92137   0.75647   0.00000  Uiso   1.00
H348   H     0.81745  -0.13233   0.00241   0.00000  Uiso   1.00
H349   H     0.70872  -0.11371   0.01258   0.00000  Uiso   1.00
H350   H     0.77267  -0.10096   0.08623   0.00000  Uiso   1.00
H351   H     1.05541   0.12742   0.04177   0.00000  Uiso   1.00
H352   H     0.97507   0.02223   0.08340   0.00000  Uiso   1.00
H353   H     0.95750   0.09725   0.11383   0.00000  Uiso   1.00
H354   H     0.72217   0.03421   0.99568   0.00000  Uiso   1.00
H355   H     0.83748   0.11955   0.94869   0.00000  Uiso   1.00
H356   H     0.83071   0.12589   1.04008   0.00000  Uiso   1.00
H357   H     1.02812   0.07564   0.46818   0.00000  Uiso   1.00
H358   H     1.01116   0.01531   0.54058   0.00000  Uiso   1.00
H359   H     0.93756   0.06634   0.53822   0.00000  Uiso   1.00
H360   H     1.25836   0.22680   0.38636   0.00000  Uiso   1.00
H361   H     1.12791   0.18262   0.36177   0.00000  Uiso   1.00
H362   H     1.19796   0.28461   0.41502   0.00000  Uiso   1.00
H363   H     1.00947   0.12352   0.27669   0.00000  Uiso   1.00
H364   H     0.93309   0.01499   0.25343   0.00000  Uiso   1.00
H365   H     1.01617   0.04452   0.32443   0.00000  Uiso   1.00
H366   H     0.69232   0.03290   0.35479   0.00000  Uiso   1.00
H367   H     0.71136  -0.03549   0.29896   0.00000  Uiso   1.00
H368   H     0.77809   0.07605   0.28121   0.00000  Uiso   1.00
H369   H     0.92640   0.20660   0.39300   0.00000  Uiso   1.00
H370   H     0.99710   0.17391   0.43556   0.00000  Uiso   1.00
H371   H     0.85604   0.13516   0.46554   0.00000  Uiso   1.00
H372   H     1.00685   0.10802   0.66956   0.00000  Uiso   1.00
H373   H     1.02854   0.18693   0.72883   0.00000  Uiso   1.00
H374   H     1.01530   0.20875   0.64590   0.00000  Uiso   1.00
H375   H     0.80384   0.04450   0.58073   0.00000  Uiso   1.00
H376   H     0.83368   0.15673   0.59991   0.00000  Uiso   1.00
H377   H     0.70579   0.05622   0.62855   0.00000  Uiso   1.00
H378   H     1.06964   0.59926   0.33536   0.00000  Uiso   1.00
H379   H     1.03775   0.63769   0.26890   0.00000  Uiso   1.00
H380   H     1.01034   0.52613   0.26187   0.00000  Uiso   1.00
H381   H     0.84777   0.59701   0.24660   0.00000  Uiso   1.00
H382   H     0.72914   0.52270   0.30030   0.00000  Uiso   1.00
H383   H     0.78603   0.47831   0.23323   0.00000  Uiso   1.00
H384   H     0.76595   0.37492   0.33405   0.00000  Uiso   1.00
H385   H     0.78674   0.42244   0.42343   0.00000  Uiso   1.00
H386   H     0.88617   0.41845   0.36050   0.00000  Uiso   1.00
H387   H     0.65115   0.25660   0.66953   0.00000  Uiso   1.00
H388   H     0.66246   0.30016   0.75690   0.00000  Uiso   1.00
H389   H     0.73167   0.24382   0.72164   0.00000  Uiso   1.00
H390   H     0.82351   0.20153   0.77975   0.00000  Uiso   1.00
H391   H     0.80761   0.11442   0.82153   0.00000  Uiso   1.00
H392   H     0.70659   0.10565   0.77589   0.00000  Uiso   1.00
H393   H     0.84931   0.32118   0.56733   0.00000  Uiso   1.00
H394   H     0.89565   0.30473   0.63417   0.00000  Uiso   1.00
H395   H     0.97449   0.41172   0.60675   0.00000  Uiso   1.00
H396   H     0.97472   0.52066   0.73612   0.00000  Uiso   1.00
H397   H     0.89889   0.41760   0.78119   0.00000  Uiso   1.00
H398   H     0.84428   0.48172   0.79158   0.00000  Uiso   1.00
H399   H     0.53823   0.34137   0.80504   0.00000  Uiso   1.00
H400   H     0.45962   0.38276   0.78116   0.00000  Uiso   1.00
H401   H     0.45270   0.35577   0.86239   0.00000  Uiso   1.00
H402   H     0.76706   0.54721   0.86965   0.00000  Uiso   1.00
H403   H     0.69695   0.43232   0.86129   0.00000  Uiso   1.00
H404   H     0.67257   0.49216   0.94075   0.00000  Uiso   1.00
H405   H     0.80388   0.59262   0.12853   0.00000  Uiso   1.00
H406   H     0.75725   0.65125   0.10167   0.00000  Uiso   1.00
H407   H     0.75976   0.64534   0.18973   0.00000  Uiso   1.00
H408   H     0.95733   0.69744   0.02350   0.00000  Uiso   1.00
H409   H     1.05563   0.72203   0.07601   0.00000  Uiso   1.00
H410   H     1.05471   0.80912   0.03134   0.00000  Uiso   1.00
H411   H     0.92333   0.85826   0.08072   0.00000  Uiso   1.00
H412   H     0.98658   0.90800   0.15633   0.00000  Uiso   1.00
H413   H     0.85103   0.83832   0.16932   0.00000  Uiso   1.00
H414   H     0.78395   0.86105   0.30921   0.00000  Uiso   1.00
H415   H     0.68912   0.73956   0.32985   0.00000  Uiso   1.00
H416   H     0.78482   0.77208   0.26089   0.00000  Uiso   1.00
H417   H     0.73394   0.75655   0.85911   0.00000  Uiso   1.00
H418   H     0.59829   0.68847   0.87664   0.00000  Uiso   1.00
H419   H     0.67642   0.76988   0.94264   0.00000  Uiso   1.00
loop_
_geom_bond_atom_site_label_1
_geom_bond_atom_site_label_2
_geom_bond_distance
_geom_bond_site_symmetry_2
_ccdc_geom_bond_type
Si1    C52     1.826   .     S
Si1    C53     1.864   .     S
Si1    C54     1.955   1_545 S
Si1    O75     1.575   1_545 S
Si2    C55     1.824   .     S
Si2    O59     1.622   .     S
Si2    C56     1.838   1_455 S
Si2    C143    1.889   1_455 S
Si3    C57     1.815   .     S
Si3    O93     1.608   .     S
Si3    O78     1.665   1_545 S
Si3    O81     1.639   1_545 S
Si4    C58     1.828   .     S
Si4    C66     1.836   .     S
Si4    O138    1.571   1_455 S
Si4    O148    1.607   1_455 S
Si5    O59     1.583   .     S
Si5    C60     1.825   .     S
Si5    C61     1.883   .     S
Si5    C62     1.860   .     S
Si6    C63     1.860   .     S
Si6    O73     1.595   .     S
Si6    C64     1.854   1_554 S
Si6    O110    1.594   1_554 S
Si7    O69     1.608   .     S
Si7    O76     1.631   .     S
Si7    C65     1.779   1_455 S
Si7    O164    1.621   1_455 S
Si8    C67     1.872   .     S
Si8    C68     1.863   .     S
Si8    O70     1.634   .     S
Si8    O108    1.610   .     S
Si9    O69     1.637   .     S
Si9    O70     1.577   .     S
Si9    C71     1.864   .     S
Si9    O107    1.612   .     S
Si10   C72     1.896   .     S
Si10   O73     1.618   .     S
Si10   C74     1.886   .     S
Si10   C116    1.861   .     S
Si11   O75     1.620   .     S
Si11   O79     1.560   .     S
Si11   O170    1.639   1_455 S
Si11   O177    1.549   1_455 S
Si12   O76     1.611   .     S
Si12   C77     1.913   .     S
Si12   O80     1.585   .     S
Si12   O126    1.563   .     S
Si13   O78     1.653   .     S
Si13   O85     1.550   .     S
Si13   O173    1.654   1_455 S
Si13   O188    1.604   1_455 S
Si14   O79     1.620   .     S
Si14   O80     1.609   .     S
Si14   O81     1.643   .     S
Si14   O120    1.620   .     S
Si15   C82     1.930   .     S
Si15   C83     1.819   .     S
Si15   C84     1.852   1_455 S
Si15   O183    1.596   1_455 S
Si16   O85     1.656   .     S
Si16   C86     1.839   .     S
Si16   C87     1.839   .     S
Si16   O128    1.597   .     S
Si17   C88     1.913   .     S
Si17   C89     1.864   .     S
Si17   O119    1.629   1_545 S
Si17   O122    1.685   1_545 S
Si18   C90     1.911   .     S
Si18   C91     1.869   .     S
Si18   C92     1.839   1_545 S
Si18   O127    1.619   1_545 S
Si19   O93     1.642   .     S
Si19   C94     1.852   .     S
Si19   O95     1.577   .     S
Si19   O103    1.622   .     S
Si20   O95     1.637   .     S
Si20   C96     1.868   .     S
Si20   C97     1.862   .     S
Si20   C98     1.897   .     S
Si21   C99     1.858   .     S
Si21   C100    1.893   .     S
Si21   C101    1.930   .     S
Si21   O102    1.585   .     S
Si22   O102    1.597   .     S
Si22   O114    1.575   .     S
Si22   O109    1.571   1_554 S
Si22   O163    1.587   1_554 S
Si23   O103    1.668   .     S
Si23   C104    1.846   .     S
Si23   C105    1.795   .     S
Si23   O152    1.663   .     S
Si24   C106    1.865   .     S
Si24   O107    1.616   .     S
Si24   O111    1.602   .     S
Si24   O123    1.513   .     S
Si25   O108    1.619   .     S
Si25   O109    1.594   .     S
Si25   O110    1.607   .     S
Si25   O129    1.616   .     S
Si26   O111    1.590   .     S
Si26   C112    1.903   .     S
Si26   O130    1.550   .     S
Si26   O153    1.637   .     S
Si27   C113    1.883   .     S
Si27   O114    1.604   .     S
Si27   C115    1.792   .     S
Si27   O121    1.638   .     S
Si28   C117    1.847   .     S
Si28   C118    1.840   .     S
Si28   O119    1.600   .     S
Si28   O120    1.671   .     S
Si29   O121    1.564   .     S
Si29   O122    1.603   .     S
Si29   O132    1.588   1_554 S
Si29   O187    1.673   1_554 S
Si30   O123    1.563   .     S
Si30   C124    1.855   .     S
Si30   C125    1.862   .     S
Si30   O174    1.600   .     S
Si31   O126    1.602   .     S
Si31   O127    1.619   .     S
Si31   O128    1.636   .     S
Si31   O135    1.575   .     S
Si32   O129    1.611   .     S
Si32   O130    1.601   .     S
Si32   O136    1.596   .     S
Si32   O184    1.594   .     S
Si33   C131    1.816   .     S
Si33   O132    1.617   .     S
Si33   C133    1.837   .     S
Si33   C134    1.836   .     S
Si34   O135    1.617   .     S
Si34   O136    1.606   .     S
Si34   C137    1.857   .     S
Si34   O176    1.626   .     S
Si35   C139    1.870   .     S
Si35   C140    1.845   .     S
Si35   O138    1.647   1_554 S
Si35   C141    1.859   1_554 S
Si36   C142    1.822   .     S
Si36   O146    1.568   .     S
Si36   O175    1.622   1_545 S
Si36   O180    1.562   1_545 S
Si37   C144    1.873   .     S
Si37   C145    1.802   .     S
Si37   O146    1.585   .     S
Si37   C147    1.876   .     S
Si38   O148    1.647   .     S
Si38   O151    1.571   .     S
Si38   O186    1.584   1_545 S
Si38   O191    1.661   1_545 S
Si39   C149    1.872   .     S
Si39   C150    1.870   .     S
Si39   O151    1.571   .     S
Si39   C158    1.871   .     S
Si40   O152    1.704   .     S
Si40   O153    1.616   .     S
Si40   O165    1.556   .     S
Si40   O171    1.620   .     S
Si41   C154    1.849   .     S
Si41   C155    1.827   .     S
Si41   C156    1.871   .     S
Si41   O172    1.614   .     S
Si42   C157    1.871   .     S
Si42   C159    1.826   .     S
Si42   C160    1.880   .     S
Si42   O166    1.624   .     S
Si43   C161    1.867   .     S
Si43   C162    1.837   .     S
Si43   O163    1.588   .     S
Si43   O181    1.631   .     S
Si44   O164    1.622   .     S
Si44   O165    1.602   .     S
Si44   O166    1.554   .     S
Si44   O182    1.624   .     S
Si45   C167    1.810   .     S
Si45   C168    1.844   .     S
Si45   C169    1.863   .     S
Si45   O170    1.606   .     S
Si46   O171    1.633   .     S
Si46   O172    1.608   .     S
Si46   O173    1.619   .     S
Si46   O179    1.574   .     S
Si47   O174    1.581   .     S
Si47   O175    1.563   .     S
Si47   O176    1.625   .     S
Si47   O189    1.604   .     S
Si48   O177    1.593   .     S
Si48   C178    1.841   .     S
Si48   O179    1.632   .     S
Si48   O180    1.604   .     S
Si49   O181    1.597   .     S
Si49   O182    1.636   .     S
Si49   O183    1.566   .     S
Si49   O190    1.619   .     S
Si50   O184    1.660   .     S
Si50   C185    1.882   .     S
Si50   O186    1.557   .     S
Si50   O187    1.622   .     S
Si51   O188    1.645   .     S
Si51   O189    1.579   .     S
Si51   O190    1.609   .     S
Si51   O191    1.617   .     S
C52    H192    1.105   .     S
C52    H193    1.077   .     S
C52    H194    1.146   .     S
C53    H195    1.093   .     S
C53    H196    1.083   .     S
C53    H197    1.121   .     S
C54    H198    1.100   .     S
C54    H199    1.076   .     S
C54    H200    1.111   .     S
C54    Si1     1.955   1_565 S
C55    H201    1.088   .     S
C55    H202    1.119   .     S
C55    H203    1.134   .     S
C56    H204    1.119   .     S
C56    H205    1.136   .     S
C56    H206    1.122   .     S
C56    Si2     1.838   1_655 S
C57    H207    1.067   .     S
C57    H208    1.112   .     S
C57    H209    1.022   .     S
C58    H210    1.169   .     S
C58    H211    1.068   .     S
C58    H212    1.201   .     S
C60    H213    1.060   .     S
C60    H214    1.081   .     S
C60    H215    1.111   .     S
C61    H216    1.107   .     S
C61    H217    1.095   .     S
C61    H218    1.108   .     S
C62    H219    1.091   .     S
C62    H220    1.091   .     S
C62    H221    1.124   .     S
C63    H222    1.066   .     S
C63    H223    1.164   .     S
C63    H224    1.136   .     S
C64    H225    1.111   .     S
C64    H226    1.109   .     S
C64    H227    1.066   .     S
C64    Si6     1.854   1_556 S
C65    H228    1.091   .     S
C65    H229    1.044   .     S
C65    H230    1.066   .     S
C65    Si7     1.779   1_655 S
C66    H231    1.092   .     S
C66    H232    1.095   .     S
C66    H233    1.071   .     S
C67    H234    1.129   .     S
C67    H235    1.141   .     S
C67    H236    1.032   .     S
C68    H237    1.095   .     S
C68    H238    1.070   .     S
C68    H239    1.100   .     S
C71    H240    1.085   .     S
C71    H241    1.093   .     S
C71    H242    1.146   .     S
C72    H243    1.112   .     S
C72    H244    1.123   .     S
C72    H245    1.109   .     S
C74    H246    1.119   .     S
C74    H247    1.081   .     S
C74    H248    1.136   .     S
O75    Si1     1.575   1_565 S
C77    H249    1.099   .     S
C77    H250    1.108   .     S
C77    H251    1.098   .     S
O78    Si3     1.665   1_565 S
O81    Si3     1.639   1_565 S
C82    H252    1.153   .     S
C82    H253    1.116   .     S
C82    H254    1.137   .     S
C83    H255    1.118   .     S
C83    H256    1.156   .     S
C83    H257    1.129   .     S
C84    H258    1.114   .     S
C84    H259    1.113   .     S
C84    H260    1.117   .     S
C84    Si15    1.852   1_655 S
C86    H261    1.124   .     S
C86    H262    1.113   .     S
C86    H263    1.137   .     S
C87    H264    1.125   .     S
C87    H265    1.072   .     S
C87    H266    1.086   .     S
C88    H267    1.126   .     S
C88    H268    1.160   .     S
C88    H269    1.115   .     S
C89    H270    1.154   .     S
C89    H271    1.083   .     S
C89    H272    1.067   .     S
C90    H273    1.064   .     S
C90    H274    1.140   .     S
C90    H275    1.103   .     S
C91    H276    1.094   .     S
C91    H277    1.130   .     S
C91    H278    1.180   .     S
C92    H279    1.140   .     S
C92    H280    1.061   .     S
C92    H281    1.124   .     S
C92    Si18    1.839   1_565 S
C94    H282    1.104   .     S
C94    H283    1.136   .     S
C94    H284    1.128   .     S
C96    H285    1.086   .     S
C96    H286    1.101   .     S
C96    H287    1.108   .     S
C97    H288    1.097   .     S
C97    H289    1.094   .     S
C97    H290    1.150   .     S
C98    H291    1.091   .     S
C98    H292    1.110   .     S
C98    H293    1.152   .     S
C99    H294    1.101   .     S
C99    H295    1.106   .     S
C99    H296    1.090   .     S
C100   H297    1.130   .     S
C100   H298    1.114   .     S
C100   H299    1.114   .     S
C101   H300    1.161   .     S
C101   H301    1.150   .     S
C101   H302    1.139   .     S
C104   H303    1.166   .     S
C104   H304    1.103   .     S
C104   H305    1.113   .     S
C105   H306    1.070   .     S
C105   H307    1.077   .     S
C105   H308    1.146   .     S
C106   H309    1.089   .     S
C106   H310    1.192   .     S
C106   H311    1.095   .     S
O109   Si22    1.571   1_556 S
O110   Si6     1.594   1_556 S
C112   H312    1.104   .     S
C112   H313    1.073   .     S
C112   H314    1.113   .     S
C113   H315    1.110   .     S
C113   H316    1.143   .     S
C113   H317    1.056   .     S
C115   H318    1.072   .     S
C115   H319    1.117   .     S
C115   H320    1.113   .     S
C116   H321    1.113   .     S
C116   H322    1.106   .     S
C116   H323    1.116   .     S
C117   H324    1.141   .     S
C117   H325    1.080   .     S
C117   H326    1.137   .     S
C118   H327    1.031   .     S
C118   H328    1.125   .     S
C118   H329    1.071   .     S
O119   Si17    1.629   1_565 S
O122   Si17    1.685   1_565 S
C124   H330    1.138   .     S
C124   H331    1.097   .     S
C124   H332    1.123   .     S
C125   H333    1.054   .     S
C125   H334    1.076   .     S
C125   H335    1.100   .     S
O127   Si18    1.619   1_565 S
C131   H336    1.111   .     S
C131   H337    1.138   .     S
C131   H338    1.066   .     S
O132   Si29    1.588   1_556 S
C133   H339    1.094   .     S
C133   H340    1.057   .     S
C133   H341    1.144   .     S
C134   H342    1.123   .     S
C134   H343    1.046   .     S
C134   H344    1.085   .     S
C137   H345    1.054   .     S
C137   H346    1.143   .     S
C137   H347    1.125   .     S
O138   Si4     1.571   1_655 S
O138   Si35    1.647   1_556 S
C139   H348    1.093   .     S
C139   H349    1.111   .     S
C139   H350    1.123   .     S
C140   H351    1.148   .     S
C140   H352    1.117   .     S
C140   H353    1.036   .     S
C141   H354    1.097   .     S
C141   H355    1.093   .     S
C141   H356    1.103   .     S
C141   Si35    1.859   1_556 S
C142   H357    1.064   .     S
C142   H358    1.079   .     S
C142   H359    1.139   .     S
C143   H360    1.061   .     S
C143   H361    1.110   .     S
C143   H362    1.083   .     S
C143   Si2     1.889   1_655 S
C144   H363    1.063   .     S
C144   H364    1.124   .     S
C144   H365    1.176   .     S
C145   H366    1.078   .     S
C145   H367    1.086   .     S
C145   H368    1.059   .     S
C147   H369    1.064   .     S
C147   H370    1.152   .     S
C147   H371    1.122   .     S
O148   Si4     1.607   1_655 S
C149   H372    1.085   .     S
C149   H373    1.021   .     S
C149   H374    1.145   .     S
C150   H375    1.075   .     S
C150   H376    1.145   .     S
C150   H377    1.102   .     S
C154   H378    1.118   .     S
C154   H379    1.046   .     S
C154   H380    1.092   .     S
C155   H381    1.136   .     S
C155   H382    1.103   .     S
C155   H383    1.067   .     S
C156   H384    1.131   .     S
C156   H385    1.094   .     S
C156   H386    1.074   .     S
C157   H387    1.086   .     S
C157   H388    1.123   .     S
C157   H389    1.123   .     S
C158   H390    1.054   .     S
C158   H391    1.118   .     S
C158   H392    1.106   .     S
C159   H393    1.127   .     S
C159   H394    1.069   .     S
C159   H395    1.138   .     S
C160   H396    1.141   .     S
C160   H397    1.064   .     S
C160   H398    1.148   .     S
C161   H399    1.110   .     S
C161   H400    1.072   .     S
C161   H401    1.070   .     S
C162   H402    1.053   .     S
C162   H403    1.118   .     S
C162   H404    1.145   .     S
O163   Si22    1.587   1_556 S
O164   Si7     1.621   1_655 S
C167   H405    1.055   .     S
C167   H406    1.103   .     S
C167   H407    1.050   .     S
C168   H408    1.094   .     S
C168   H409    1.080   .     S
C168   H410    1.171   .     S
C169   H411    1.131   .     S
C169   H412    1.096   .     S
C169   H413    1.087   .     S
O170   Si11    1.639   1_655 S
O173   Si13    1.654   1_655 S
O175   Si36    1.622   1_565 S
O177   Si11    1.549   1_655 S
C178   H414    1.128   .     S
C178   H415    1.111   .     S
C178   H416    1.093   .     S
O180   Si36    1.562   1_565 S
O183   Si15    1.596   1_655 S
C185   H417    1.101   .     S
C185   H418    1.070   .     S
C185   H419    1.118   .     S
O186   Si38    1.584   1_565 S
O187   Si29    1.673   1_556 S
O188   Si13    1.604   1_655 S
O191   Si38    1.661   1_565 S
