data_333-15-11-10-15-30-9
_audit_creation_date              2025-03-07
_audit_creation_method            'Materials Studio'
_symmetry_space_group_name_H-M    'P1'
_symmetry_Int_Tables_number       1
_symmetry_cell_setting            triclinic
loop_
_symmetry_equiv_pos_as_xyz
  x,y,z
_cell_length_a                    15.4698
_cell_length_b                    15.8970
_cell_length_c                    18.3699
_cell_angle_alpha                 90.0449
_cell_angle_beta                  92.6954
_cell_angle_gamma                 110.9368
loop_
_atom_site_label
_atom_site_type_symbol
_atom_site_fract_x
_atom_site_fract_y
_atom_site_fract_z
_atom_site_U_iso_or_equiv
_atom_site_adp_type
_atom_site_occupancy
Si1    Si   -0.02574   0.13612   0.25414   0.00000  Uiso   1.00
Si2    Si    0.17006  -0.09345   0.28904   0.00000  Uiso   1.00
Si3    Si   -0.03412   0.12001   0.52674   0.00000  Uiso   1.00
Si4    Si    0.16060   0.09819   0.29171   0.00000  Uiso   1.00
Si5    Si   -0.10822   0.11365   0.91448   0.00000  Uiso   1.00
Si6    Si    0.13443   0.17826   0.63486   0.00000  Uiso   1.00
Si7    Si   -0.04320   0.47831   0.19801   0.00000  Uiso   1.00
Si8    Si    0.09669   0.49951   0.32585   0.00000  Uiso   1.00
Si9    Si    0.13793   0.35309   0.71234   0.00000  Uiso   1.00
Si10   Si   -0.10135   0.49173   0.89301   0.00000  Uiso   1.00
Si11   Si    0.12832   0.59472   0.11645   0.00000  Uiso   1.00
Si12   Si    0.23002   0.73018   0.84901   0.00000  Uiso   1.00
Si13   Si    0.20962   0.90458   0.61819   0.00000  Uiso   1.00
Si14   Si    0.53776   0.04264   0.13258   0.00000  Uiso   1.00
Si15   Si    0.34415   0.15987   0.21566   0.00000  Uiso   1.00
Si16   Si    0.47528   0.15388   0.02271   0.00000  Uiso   1.00
Si17   Si    0.51031   0.02476   0.43223   0.00000  Uiso   1.00
Si18   Si    0.51482   0.18996   0.32876   0.00000  Uiso   1.00
Si19   Si    0.53692   0.03341   0.78163   0.00000  Uiso   1.00
Si20   Si    0.31167   0.14507   0.91852   0.00000  Uiso   1.00
Si21   Si    0.53389   0.16755   0.66170   0.00000  Uiso   1.00
Si22   Si    0.47934   0.30922   0.12213   0.00000  Uiso   1.00
Si23   Si    0.27658   0.45326   0.30932   0.00000  Uiso   1.00
Si24   Si    0.51510   0.35969   0.41800   0.00000  Uiso   1.00
Si25   Si    0.35595   0.60830   0.54429   0.00000  Uiso   1.00
Si26   Si    0.48231   0.54241   0.36467   0.00000  Uiso   1.00
Si27   Si    0.60455   0.73226   0.11953   0.00000  Uiso   1.00
Si28   Si    0.53353   0.71439   0.47150   0.00000  Uiso   1.00
Si29   Si    0.39112   0.91117   0.54981   0.00000  Uiso   1.00
Si30   Si    0.52963   0.85775   0.35371   0.00000  Uiso   1.00
Si31   Si    0.55691   0.73006   0.74803   0.00000  Uiso   1.00
Si32   Si    0.40447   0.89339   0.87115   0.00000  Uiso   1.00
Si33   Si    0.53882   0.88783   0.66681   0.00000  Uiso   1.00
Si34   Si    0.82076   0.01100   0.15412   0.00000  Uiso   1.00
Si35   Si    0.68211   0.17694   0.23659   0.00000  Uiso   1.00
Si36   Si    0.78904   0.14150   0.03953   0.00000  Uiso   1.00
Si37   Si    0.80236  -0.03700   0.45335   0.00000  Uiso   1.00
Si38   Si    0.65202   0.12649   0.53834   0.00000  Uiso   1.00
Si39   Si    0.81037   0.12037   0.35015   0.00000  Uiso   1.00
Si40   Si    0.63665   0.14084   0.92359   0.00000  Uiso   1.00
Si41   Si    0.82007   0.13070   0.62938   0.00000  Uiso   1.00
Si42   Si    0.79934   0.31416   0.12556   0.00000  Uiso   1.00
Si43   Si    0.75426   0.43477   0.01137   0.00000  Uiso   1.00
Si44   Si    0.79007   0.26722   0.45223   0.00000  Uiso   1.00
Si45   Si    0.67582   0.47810   0.52233   0.00000  Uiso   1.00
Si46   Si    0.61030   0.46658   0.90894   0.00000  Uiso   1.00
Si47   Si    0.68234   0.87013   0.24540   0.00000  Uiso   1.00
Si48   Si    0.91660   0.89697   0.09032   0.00000  Uiso   1.00
Si49   Si    0.68928   0.85345   0.56951   0.00000  Uiso   1.00
Si50   Si    0.82235   0.82810   0.33605   0.00000  Uiso   1.00
Si51   Si    0.85720   0.80781   0.62637   0.00000  Uiso   1.00
C52    C     0.00568   0.25520   0.22234   0.00000  Uiso   1.00
C53    C     0.28735  -0.06535   0.33074   0.00000  Uiso   1.00
C54    C     0.09343   0.82606   0.35130   0.00000  Uiso   1.00
C55    C     0.15584   0.83927   0.20138   0.00000  Uiso   1.00
C56    C     0.02920   0.20813   0.46300   0.00000  Uiso   1.00
O57    O     0.07494   0.12997   0.27463   0.00000  Uiso   1.00
O58    O     0.14367  -0.00706   0.27283   0.00000  Uiso   1.00
C59    C     0.19509   0.10999   0.39387   0.00000  Uiso   1.00
C60    C     0.00476   0.10897   0.91378   0.00000  Uiso   1.00
C61    C     0.80335  -0.00292   0.88913   0.00000  Uiso   1.00
O62    O     0.04975   0.11942   0.58278   0.00000  Uiso   1.00
C63    C     0.16133   0.10882   0.71338   0.00000  Uiso   1.00
C64    C     0.23877   0.23622   0.57902   0.00000  Uiso   1.00
C65    C     0.87328   0.52412   0.24337   0.00000  Uiso   1.00
O66    O     0.02634   0.45682   0.25431   0.00000  Uiso   1.00
C67    C     0.04973   0.40517   0.39397   0.00000  Uiso   1.00
C68    C     0.09052   0.60847   0.35254   0.00000  Uiso   1.00
C69    C    -0.11017   0.19813   0.84611   0.00000  Uiso   1.00
C70    C     0.08738   0.35527   0.80016   0.00000  Uiso   1.00
O71    O     0.10979   0.25173   0.68302   0.00000  Uiso   1.00
C72    C     0.10065   0.41470   0.63792   0.00000  Uiso   1.00
C73    C     0.26658   0.39341   0.73170   0.00000  Uiso   1.00
C74    C     0.00863   0.48205   0.92910   0.00000  Uiso   1.00
C75    C     0.88510   0.43863   0.79804   0.00000  Uiso   1.00
O76    O     0.02076   0.55049   0.14338   0.00000  Uiso   1.00
C77    C     0.15546   0.49893   0.07394   0.00000  Uiso   1.00
C78    C     0.13155   0.69068   0.05727   0.00000  Uiso   1.00
C79    C     0.22270   0.65395   0.18599   0.00000  Uiso   1.00
C80    C    -0.09956   0.60903   0.89011   0.00000  Uiso   1.00
C81    C     0.26828   0.65825   0.91768   0.00000  Uiso   1.00
C82    C     0.16367   0.65990   0.77014   0.00000  Uiso   1.00
C83    C     0.14336   0.78145   0.59844   0.00000  Uiso   1.00
C84    C     0.15060   0.77832   0.88819   0.00000  Uiso   1.00
C85    C     0.22446   0.92376   0.71584   0.00000  Uiso   1.00
C86    C     0.14669   0.96472   0.56438   0.00000  Uiso   1.00
C87    C     0.47550   0.97306   0.20495   0.00000  Uiso   1.00
C88    C     0.55964   0.95667   0.08036   0.00000  Uiso   1.00
C89    C     0.29182   0.06228   0.14837   0.00000  Uiso   1.00
O90    O     0.25394   0.16283   0.25310   0.00000  Uiso   1.00
O91    O     0.47549   0.08771   0.08637   0.00000  Uiso   1.00
O92    O     0.42353   0.15276   0.27452   0.00000  Uiso   1.00
O93    O     0.49675   0.11043   0.38921   0.00000  Uiso   1.00
C94    C     0.20353   0.04169   0.89688   0.00000  Uiso   1.00
O95    O     0.37406   0.12390   0.98396   0.00000  Uiso   1.00
C96    C     0.37914   0.18893   0.83669   0.00000  Uiso   1.00
C97    C     0.26738   0.23470   0.94480   0.00000  Uiso   1.00
C98    C     0.41389   0.14282   0.62015   0.00000  Uiso   1.00
O99    O     0.53077   0.11331   0.73558   0.00000  Uiso   1.00
C100   C     0.57237   0.28699   0.67921   0.00000  Uiso   1.00
O101   O     0.39565   0.24925   0.16943   0.00000  Uiso   1.00
O102   O     0.50503   0.24919   0.06027   0.00000  Uiso   1.00
C103   C     0.45289   0.40122   0.08065   0.00000  Uiso   1.00
C104   C     0.58591   0.36707   0.18087   0.00000  Uiso   1.00
C105   C     0.23456   0.35239   0.36199   0.00000  Uiso   1.00
O106   O     0.19911   0.50302   0.30550   0.00000  Uiso   1.00
C107   C     0.42092   0.29822   0.48138   0.00000  Uiso   1.00
O108   O     0.52761   0.28963   0.35786   0.00000  Uiso   1.00
C109   C     0.25963   0.59280   0.47387   0.00000  Uiso   1.00
C110   C     0.36708   0.49267   0.55323   0.00000  Uiso   1.00
C111   C     0.32717   0.63667   0.63501   0.00000  Uiso   1.00
O112   O     0.37184   0.51926   0.34926   0.00000  Uiso   1.00
O113   O     0.49293   0.44555   0.38352   0.00000  Uiso   1.00
C114   C     0.53283   0.56640   0.27572   0.00000  Uiso   1.00
C115   C     0.29053   0.42711   0.21397   0.00000  Uiso   1.00
C116   C     0.47407   0.66707   0.09180   0.00000  Uiso   1.00
C117   C     0.66358   0.65143   0.14606   0.00000  Uiso   1.00
C118   C     0.65504   0.78283   0.03391   0.00000  Uiso   1.00
O119   O     0.44592   0.68903   0.52023   0.00000  Uiso   1.00
O120   O     0.52989   0.62387   0.42477   0.00000  Uiso   1.00
C121   C     0.32733   0.81067   0.49006   0.00000  Uiso   1.00
O122   O     0.43863   0.98787   0.49502   0.00000  Uiso   1.00
O123   O     0.31502   0.93399   0.59321   0.00000  Uiso   1.00
C124   C     0.43082   0.77661   0.29302   0.00000  Uiso   1.00
O125   O     0.53580   0.79667   0.42130   0.00000  Uiso   1.00
O126   O     0.50278   0.94570   0.37847   0.00000  Uiso   1.00
C127   C     0.46187   0.65709   0.80586   0.00000  Uiso   1.00
C128   C     0.57546   0.64955   0.68397   0.00000  Uiso   1.00
C129   C     0.67163   0.78457   0.80073   0.00000  Uiso   1.00
O130   O     0.32423   0.81355   0.83173   0.00000  Uiso   1.00
C131   C     0.51180   0.86559   0.89191   0.00000  Uiso   1.00
O132   O     0.44254   0.97866   0.81699   0.00000  Uiso   1.00
C133   C     0.36748   0.91093   0.96519   0.00000  Uiso   1.00
O134   O     0.45709   0.89336   0.61251   0.00000  Uiso   1.00
O135   O     0.51727   0.79746   0.70802   0.00000  Uiso   1.00
O136   O     0.56819   0.96962   0.72778   0.00000  Uiso   1.00
O137   O     0.91752   0.07635   0.18587   0.00000  Uiso   1.00
O138   O     0.62741   0.11556   0.17182   0.00000  Uiso   1.00
O139   O     0.61055   0.19785   0.28762   0.00000  Uiso   1.00
O140   O     0.87175   0.13889   0.99305   0.00000  Uiso   1.00
O141   O     0.77528   0.06704   0.10095   0.00000  Uiso   1.00
O142   O     0.90278   0.01967   0.48888   0.00000  Uiso   1.00
O143   O     0.60402   0.05505   0.47659   0.00000  Uiso   1.00
O144   O     0.58463   0.13677   0.59763   0.00000  Uiso   1.00
O145   O     0.90945   0.13134   0.32028   0.00000  Uiso   1.00
O146   O     0.74230   0.12448   0.28304   0.00000  Uiso   1.00
O147   O     0.77494   0.02787   0.39646   0.00000  Uiso   1.00
O148   O     0.60771   0.07274   0.85392   0.00000  Uiso   1.00
O149   O     0.70005   0.11587   0.98336   0.00000  Uiso   1.00
C150   C     0.69038   0.25112   0.88464   0.00000  Uiso   1.00
O151   O     0.54545   0.14887   0.96062   0.00000  Uiso   1.00
O152   O     0.90164   0.15889   0.57306   0.00000  Uiso   1.00
O153   O     0.72454   0.09267   0.58292   0.00000  Uiso   1.00
C154   C     0.83391   0.05072   0.69925   0.00000  Uiso   1.00
C155   C     0.81075   0.22712   0.68302   0.00000  Uiso   1.00
O156   O     0.74176   0.26811   0.19664   0.00000  Uiso   1.00
O157   O     0.81887   0.23877   0.07964   0.00000  Uiso   1.00
O158   O     0.89756   0.38905   0.15326   0.00000  Uiso   1.00
O159   O     0.82677   0.43608   0.95103   0.00000  Uiso   1.00
O160   O     0.74597   0.36239   0.07267   0.00000  Uiso   1.00
C161   C     0.80045   0.54220   0.06204   0.00000  Uiso   1.00
O162   O     0.70703   0.21923   0.50074   0.00000  Uiso   1.00
O163   O     0.82439   0.19940   0.40932   0.00000  Uiso   1.00
C164   C     0.77256   0.35275   0.38793   0.00000  Uiso   1.00
C165   C     0.89237   0.33619   0.51203   0.00000  Uiso   1.00
O166   O     0.60839   0.40291   0.46702   0.00000  Uiso   1.00
C167   C     0.74968   0.43474   0.58145   0.00000  Uiso   1.00
C168   C     0.73277   0.57128   0.46538   0.00000  Uiso   1.00
C169   C     0.60016   0.50104   0.58255   0.00000  Uiso   1.00
C170   C     0.48858   0.39653   0.89528   0.00000  Uiso   1.00
O171   O     0.65763   0.42229   0.96807   0.00000  Uiso   1.00
C172   C     0.65655   0.46629   0.81458   0.00000  Uiso   1.00
C173   C     0.62866   0.58888   0.93453   0.00000  Uiso   1.00
O174   O     0.61549   0.80757   0.18049   0.00000  Uiso   1.00
O175   O     0.75339   0.95888   0.21678   0.00000  Uiso   1.00
O176   O     0.61951   0.88892   0.30791   0.00000  Uiso   1.00
C177   C     1.03131   0.98778   1.10129   0.00000  Uiso   1.00
C178   C     0.90400   0.79396   0.14040   0.00000  Uiso   1.00
O179   O     0.84154   0.93827   0.10791   0.00000  Uiso   1.00
C180   C     0.90973   0.85479   0.99305   0.00000  Uiso   1.00
O181   O     0.62231   0.75788   0.52449   0.00000  Uiso   1.00
O182   O     0.72970   0.92800   0.51168   0.00000  Uiso   1.00
O183   O     0.63101   0.89403   0.62031   0.00000  Uiso   1.00
C184   C     0.93516   0.91166   0.30896   0.00000  Uiso   1.00
O185   O     0.74144   0.81970   0.27968   0.00000  Uiso   1.00
C186   C     0.83757   0.71737   0.33692   0.00000  Uiso   1.00
O187   O     0.80920   0.87393   0.41125   0.00000  Uiso   1.00
C188   C     0.90827   0.79901   0.53975   0.00000  Uiso   1.00
O189   O     0.76996   0.83813   0.61473   0.00000  Uiso   1.00
C190   C     0.82489   0.69335   0.66674   0.00000  Uiso   1.00
C191   C     0.93834   0.90049   0.68505   0.00000  Uiso   1.00
H192   H     0.02416   0.25181   0.16393   0.00000  Uiso   1.00
H193   H     0.06673   0.29783   0.25288   0.00000  Uiso   1.00
H194   H    -0.05532   0.27801   0.23335   0.00000  Uiso   1.00
H195   H     0.33765  -0.01317   0.30205   0.00000  Uiso   1.00
H196   H     0.30419  -0.12625   0.32482   0.00000  Uiso   1.00
H197   H     0.28793  -0.05012   0.39273   0.00000  Uiso   1.00
H198   H     0.07770   0.86430   0.39511   0.00000  Uiso   1.00
H199   H     0.13016   0.78549   0.37827   0.00000  Uiso   1.00
H200   H     0.02543   0.77571   0.32550   0.00000  Uiso   1.00
H201   H     0.11682   0.76267   0.20278   0.00000  Uiso   1.00
H202   H     0.22322   0.84867   0.17917   0.00000  Uiso   1.00
H203   H     0.12116   0.87104   0.16368   0.00000  Uiso   1.00
H204   H     0.07021   0.18645   0.42637   0.00000  Uiso   1.00
H205   H     0.07244   0.27194   0.49492   0.00000  Uiso   1.00
H206   H    -0.02151   0.22280   0.42768   0.00000  Uiso   1.00
H207   H     0.21591   0.18253   0.41768   0.00000  Uiso   1.00
H208   H     0.26149   0.09334   0.40671   0.00000  Uiso   1.00
H209   H     0.13838   0.06119   0.42601   0.00000  Uiso   1.00
H210   H     0.02096   0.09960   0.85851   0.00000  Uiso   1.00
H211   H     0.01092   0.05417   0.94979   0.00000  Uiso   1.00
H212   H     0.05337   0.17423   0.93862   0.00000  Uiso   1.00
H213   H     0.78581  -0.03452   0.94242   0.00000  Uiso   1.00
H214   H     0.83207  -0.03444   0.85156   0.00000  Uiso   1.00
H215   H     0.73957  -0.00002   0.85931   0.00000  Uiso   1.00
H216   H     0.18565   0.15422   0.76151   0.00000  Uiso   1.00
H217   H     0.21795   0.08781   0.69182   0.00000  Uiso   1.00
H218   H     0.09723   0.05158   0.72419   0.00000  Uiso   1.00
H219   H     0.29179   0.28077   0.61585   0.00000  Uiso   1.00
H220   H     0.21955   0.27137   0.53138   0.00000  Uiso   1.00
H221   H     0.25789   0.18195   0.55746   0.00000  Uiso   1.00
H222   H     0.86828   0.58107   0.20805   0.00000  Uiso   1.00
H223   H     0.89851   0.55057   0.29621   0.00000  Uiso   1.00
H224   H     0.80237   0.47304   0.25224   0.00000  Uiso   1.00
H225   H     0.07353   0.42655   0.45143   0.00000  Uiso   1.00
H226   H     0.06430   0.34455   0.37866   0.00000  Uiso   1.00
H227   H    -0.02411   0.39031   0.38837   0.00000  Uiso   1.00
H228   H     0.15888   0.65458   0.35711   0.00000  Uiso   1.00
H229   H     0.05318   0.60676   0.40424   0.00000  Uiso   1.00
H230   H     0.05986   0.63811   0.30951   0.00000  Uiso   1.00
H231   H    -0.18413   0.17371   0.82934   0.00000  Uiso   1.00
H232   H    -0.07753   0.19038   0.79679   0.00000  Uiso   1.00
H233   H    -0.08110   0.26562   0.86829   0.00000  Uiso   1.00
H234   H     0.12692   0.42419   0.82223   0.00000  Uiso   1.00
H235   H     0.09271   0.31055   0.84288   0.00000  Uiso   1.00
H236   H     0.01621   0.34839   0.79356   0.00000  Uiso   1.00
H237   H     0.12474   0.39580   0.58598   0.00000  Uiso   1.00
H238   H     0.13569   0.48733   0.65044   0.00000  Uiso   1.00
H239   H     0.01933   0.38290   0.63508   0.00000  Uiso   1.00
H240   H     0.27026   0.32900   0.75302   0.00000  Uiso   1.00
H241   H     0.30072   0.45342   0.76790   0.00000  Uiso   1.00
H242   H     0.30373   0.40850   0.68381   0.00000  Uiso   1.00
H243   H    -0.00844   0.41097   0.94992   0.00000  Uiso   1.00
H244   H     0.02588   0.52065   0.98222   0.00000  Uiso   1.00
H245   H     0.06231   0.50343   0.89293   0.00000  Uiso   1.00
H246   H     0.95338   0.46021   0.77113   0.00000  Uiso   1.00
H247   H     0.83628   0.45663   0.76694   0.00000  Uiso   1.00
H248   H     0.86543   0.36292   0.80182   0.00000  Uiso   1.00
H249   H     0.14783   0.48573   0.01390   0.00000  Uiso   1.00
H250   H     0.11613   0.43350   0.09728   0.00000  Uiso   1.00
H251   H     0.22778   0.50108   0.09103   0.00000  Uiso   1.00
H252   H     0.20206   0.73997   0.04845   0.00000  Uiso   1.00
H253   H     0.08605   0.72609   0.07484   0.00000  Uiso   1.00
H254   H     0.10004   0.66036   0.00422   0.00000  Uiso   1.00
H255   H     0.27102   0.71397   0.16077   0.00000  Uiso   1.00
H256   H     0.25883   0.61345   0.21045   0.00000  Uiso   1.00
H257   H     0.19055   0.66634   0.23444   0.00000  Uiso   1.00
H258   H    -0.07358   0.63888   0.94606   0.00000  Uiso   1.00
H259   H    -0.16514   0.61221   0.87503   0.00000  Uiso   1.00
H260   H    -0.05299   0.64507   0.84919   0.00000  Uiso   1.00
H261   H     0.20392   0.61053   0.93997   0.00000  Uiso   1.00
H262   H     0.30852   0.70278   0.96106   0.00000  Uiso   1.00
H263   H     0.30574   0.62116   0.89206   0.00000  Uiso   1.00
H264   H     0.20461   0.62254   0.74632   0.00000  Uiso   1.00
H265   H     0.14109   0.70036   0.73100   0.00000  Uiso   1.00
H266   H     0.10272   0.61228   0.79316   0.00000  Uiso   1.00
H267   H     0.18994   0.74807   0.61390   0.00000  Uiso   1.00
H268   H     0.13004   0.77337   0.53768   0.00000  Uiso   1.00
H269   H     0.08165   0.76340   0.63362   0.00000  Uiso   1.00
H270   H     0.08586   0.72195   0.90064   0.00000  Uiso   1.00
H271   H     0.13179   0.83070   0.85341   0.00000  Uiso   1.00
H272   H     0.18180   0.81432   0.94066   0.00000  Uiso   1.00
H273   H     0.15704   0.92162   0.73653   0.00000  Uiso   1.00
H274   H     0.27471   0.98684   0.73134   0.00000  Uiso   1.00
H275   H     0.23875   0.87031   0.74635   0.00000  Uiso   1.00
H276   H     0.07860   0.94760   0.58865   0.00000  Uiso   1.00
H277   H     0.13897   0.94198   0.50825   0.00000  Uiso   1.00
H278   H     0.19384   1.03591   0.56946   0.00000  Uiso   1.00
H279   H     0.40385   0.93529   0.17989   0.00000  Uiso   1.00
H280   H     0.47055   1.01468   0.25338   0.00000  Uiso   1.00
H281   H     0.50596   0.92110   0.21529   0.00000  Uiso   1.00
H282   H     0.60593   0.98941   0.03681   0.00000  Uiso   1.00
H283   H     0.50113   0.89317   0.06532   0.00000  Uiso   1.00
H284   H     0.60782   0.94137   0.12032   0.00000  Uiso   1.00
H285   H     0.27901   0.09215   0.09629   0.00000  Uiso   1.00
H286   H     0.22299   0.01938   0.16195   0.00000  Uiso   1.00
H287   H     0.32739   0.01634   0.13421   0.00000  Uiso   1.00
H288   H     0.14900   0.05563   0.86912   0.00000  Uiso   1.00
H289   H     0.16860   0.01273   0.94579   0.00000  Uiso   1.00
H290   H     0.22643  -0.00393   0.86420   0.00000  Uiso   1.00
H291   H     0.35925   0.24033   0.80148   0.00000  Uiso   1.00
H292   H     0.37766   0.13340   0.80428   0.00000  Uiso   1.00
H293   H     0.45238   0.21724   0.85171   0.00000  Uiso   1.00
H294   H     0.21772   0.23546   0.90051   0.00000  Uiso   1.00
H295   H     0.31454   0.30412   0.94345   0.00000  Uiso   1.00
H296   H     0.24016   0.22321   1.00016   0.00000  Uiso   1.00
H297   H     0.39293   0.20109   0.62586   0.00000  Uiso   1.00
H298   H     0.36474   0.09131   0.65277   0.00000  Uiso   1.00
H299   H     0.41563   0.12483   0.56046   0.00000  Uiso   1.00
H300   H     0.51291   0.31161   0.69363   0.00000  Uiso   1.00
H301   H     0.58663   0.31447   0.62481   0.00000  Uiso   1.00
H302   H     0.63261   0.30080   0.71814   0.00000  Uiso   1.00
H303   H     0.51487   0.44846   0.05635   0.00000  Uiso   1.00
H304   H     0.42654   0.43467   0.12397   0.00000  Uiso   1.00
H305   H     0.39230   0.36941   0.03823   0.00000  Uiso   1.00
H306   H     0.62751   0.43390   0.15827   0.00000  Uiso   1.00
H307   H     0.63014   0.32634   0.18827   0.00000  Uiso   1.00
H308   H     0.56402   0.38218   0.23475   0.00000  Uiso   1.00
H309   H     0.23065   0.36742   0.41746   0.00000  Uiso   1.00
H310   H     0.28477   0.31937   0.35855   0.00000  Uiso   1.00
H311   H     0.17048   0.30983   0.33409   0.00000  Uiso   1.00
H312   H     0.40367   0.22400   0.47286   0.00000  Uiso   1.00
H313   H     0.36267   0.31869   0.46977   0.00000  Uiso   1.00
H314   H     0.43872   0.31527   0.54141   0.00000  Uiso   1.00
H315   H     0.20351   0.60868   0.49958   0.00000  Uiso   1.00
H316   H     0.23717   0.51850   0.45500   0.00000  Uiso   1.00
H317   H     0.28547   0.63506   0.42755   0.00000  Uiso   1.00
H318   H     0.39268   0.47880   0.50244   0.00000  Uiso   1.00
H319   H     0.30515   0.43733   0.56195   0.00000  Uiso   1.00
H320   H     0.41152   0.49412   0.60284   0.00000  Uiso   1.00
H321   H     0.25145   0.61484   0.63122   0.00000  Uiso   1.00
H322   H     0.35291   0.70909   0.64927   0.00000  Uiso   1.00
H323   H     0.35625   0.60108   0.67674   0.00000  Uiso   1.00
H324   H     0.49577   0.51152   0.23509   0.00000  Uiso   1.00
H325   H     0.60283   0.56381   0.28583   0.00000  Uiso   1.00
H326   H     0.54102   0.63729   0.26083   0.00000  Uiso   1.00
H327   H     0.32780   0.37993   0.22408   0.00000  Uiso   1.00
H328   H     0.32381   0.49055   0.18202   0.00000  Uiso   1.00
H329   H     0.21360   0.38610   0.18563   0.00000  Uiso   1.00
H330   H     0.43778   0.71388   0.07308   0.00000  Uiso   1.00
H331   H     0.44403   0.61582   0.13590   0.00000  Uiso   1.00
H332   H     0.47176   0.61881   0.04480   0.00000  Uiso   1.00
H333   H     0.69199   0.66903   0.20186   0.00000  Uiso   1.00
H334   H     0.72216   0.66597   0.11444   0.00000  Uiso   1.00
H335   H     0.60991   0.58351   0.13745   0.00000  Uiso   1.00
H336   H     0.60167   0.75542  -0.01093   0.00000  Uiso   1.00
H337   H     0.71876   0.76863   0.02537   0.00000  Uiso   1.00
H338   H     0.67976   0.85564   0.03856   0.00000  Uiso   1.00
H339   H     0.37342   0.78372   0.46094   0.00000  Uiso   1.00
H340   H     0.29002   0.83491   0.45138   0.00000  Uiso   1.00
H341   H     0.28286   0.76335   0.52516   0.00000  Uiso   1.00
H342   H     0.38597   0.81161   0.27052   0.00000  Uiso   1.00
H343   H     0.39080   0.71255   0.32053   0.00000  Uiso   1.00
H344   H     0.46620   0.75185   0.24995   0.00000  Uiso   1.00
H345   H     0.39667   0.66316   0.78653   0.00000  Uiso   1.00
H346   H     0.47495   0.67346   0.86357   0.00000  Uiso   1.00
H347   H     0.44967   0.58549   0.79221   0.00000  Uiso   1.00
H348   H     0.65118   0.68628   0.67665   0.00000  Uiso   1.00
H349   H     0.53627   0.63905   0.63318   0.00000  Uiso   1.00
H350   H     0.56797   0.58655   0.71197   0.00000  Uiso   1.00
H351   H     0.71735   0.84037   0.77063   0.00000  Uiso   1.00
H352   H     0.70636   0.73312   0.80337   0.00000  Uiso   1.00
H353   H     0.66056   0.79943   0.85750   0.00000  Uiso   1.00
H354   H     0.55816   0.92264   0.92124   0.00000  Uiso   1.00
H355   H     0.53404   0.84715   0.84140   0.00000  Uiso   1.00
H356   H     0.49335   0.80550   0.92061   0.00000  Uiso   1.00
H357   H     0.42659   0.96298   0.99629   0.00000  Uiso   1.00
H358   H     0.34602   0.84520   0.99147   0.00000  Uiso   1.00
H359   H     0.30903   0.93921   0.95634   0.00000  Uiso   1.00
H360   H     0.63460   0.27904   0.89232   0.00000  Uiso   1.00
H361   H     0.69732   0.24606   0.82671   0.00000  Uiso   1.00
H362   H     0.75820   0.29071   0.90917   0.00000  Uiso   1.00
H363   H     0.77105   0.04345   0.73122   0.00000  Uiso   1.00
H364   H     0.90575   0.07056   0.72544   0.00000  Uiso   1.00
H365   H     0.82730  -0.01132   0.66672   0.00000  Uiso   1.00
H366   H     0.77730   0.26166   0.64341   0.00000  Uiso   1.00
H367   H     0.87867   0.27778   0.70648   0.00000  Uiso   1.00
H368   H     0.76177   0.20436   0.72811   0.00000  Uiso   1.00
H369   H     0.79904   0.59252   0.02199   0.00000  Uiso   1.00
H370   H     0.87358   0.56478   0.07440   0.00000  Uiso   1.00
H371   H     0.75950   0.54600   0.10652   0.00000  Uiso   1.00
H372   H     0.69199   0.33682   0.38409   0.00000  Uiso   1.00
H373   H     0.80398   0.34867   0.33418   0.00000  Uiso   1.00
H374   H     0.80477   0.42186   0.41498   0.00000  Uiso   1.00
H375   H     0.90492   0.41040   0.50093   0.00000  Uiso   1.00
H376   H     0.94791   0.31086   0.50995   0.00000  Uiso   1.00
H377   H     0.88168   0.32612   0.56833   0.00000  Uiso   1.00
H378   H     0.82435   0.46573   0.56865   0.00000  Uiso   1.00
H379   H     0.72948   0.36186   0.57229   0.00000  Uiso   1.00
H380   H     0.73999   0.44422   0.63785   0.00000  Uiso   1.00
H381   H     0.80841   0.59463   0.47706   0.00000  Uiso   1.00
H382   H     0.70206   0.62429   0.46970   0.00000  Uiso   1.00
H383   H     0.71384   0.54031   0.41466   0.00000  Uiso   1.00
H384   H     0.55210   0.43217   0.59294   0.00000  Uiso   1.00
H385   H     0.55850   0.53607   0.55660   0.00000  Uiso   1.00
H386   H     0.64182   0.53916   0.63179   0.00000  Uiso   1.00
H387   H     0.47017   0.39191   0.83499   0.00000  Uiso   1.00
H388   H     0.44738   0.43371   0.92387   0.00000  Uiso   1.00
H389   H     0.47102   0.32977   0.91914   0.00000  Uiso   1.00
H390   H     0.68880   0.41377   0.81330   0.00000  Uiso   1.00
H391   H     0.70982   0.53385   0.80381   0.00000  Uiso   1.00
H392   H     0.60330   0.45472   0.76986   0.00000  Uiso   1.00
H393   H     0.60839   0.59326   0.99183   0.00000  Uiso   1.00
H394   H     0.58442   0.61580   0.89792   0.00000  Uiso   1.00
H395   H     0.70108   0.63376   0.92709   0.00000  Uiso   1.00
H396   H     1.02716   1.05101   1.08100   0.00000  Uiso   1.00
H397   H     1.08649   0.97219   1.07689   0.00000  Uiso   1.00
H398   H     1.04885   0.99795   1.15872   0.00000  Uiso   1.00
H399   H     0.97038   0.79377   0.16560   0.00000  Uiso   1.00
H400   H     0.87443   0.73796   0.10577   0.00000  Uiso   1.00
H401   H     0.84521   0.77993   0.17670   0.00000  Uiso   1.00
H402   H     0.86049   0.78577   0.98346   0.00000  Uiso   1.00
H403   H     0.98035   0.85433   0.98150   0.00000  Uiso   1.00
H404   H     0.89577   0.90269   0.95586   0.00000  Uiso   1.00
H405   H     0.96323   0.88367   0.26687   0.00000  Uiso   1.00
H406   H     0.98936   0.93171   0.35358   0.00000  Uiso   1.00
H407   H     0.91494   0.96245   0.28950   0.00000  Uiso   1.00
H408   H     0.87538   0.70936   0.38903   0.00000  Uiso   1.00
H409   H     0.87963   0.71756   0.28860   0.00000  Uiso   1.00
H410   H     0.77097   0.66402   0.32981   0.00000  Uiso   1.00
H411   H     0.93578   0.86470   0.50675   0.00000  Uiso   1.00
H412   H     0.85032   0.74899   0.50584   0.00000  Uiso   1.00
H413   H     0.96072   0.77137   0.54915   0.00000  Uiso   1.00
H414   H     0.78533   0.64095   0.62518   0.00000  Uiso   1.00
H415   H     0.78878   0.69257   0.72079   0.00000  Uiso   1.00
H416   H     0.88840   0.67118   0.68173   0.00000  Uiso   1.00
H417   H     0.99730   0.88269   0.69333   0.00000  Uiso   1.00
H418   H     0.90987   0.90109   0.74036   0.00000  Uiso   1.00
H419   H     0.95950   0.96381   0.65690   0.00000  Uiso   1.00
loop_
_geom_bond_atom_site_label_1
_geom_bond_atom_site_label_2
_geom_bond_distance
_geom_bond_site_symmetry_2
_ccdc_geom_bond_type
Si1    C52     1.879   .     S
Si1    O57     1.622   .     S
Si1    O137    1.595   1_455 S
Si1    O145    1.596   1_455 S
Si2    C53     1.835   .     S
Si2    O58     1.591   .     S
Si2    C54     1.843   1_545 S
Si2    C55     1.893   1_545 S
Si3    C56     1.850   .     S
Si3    O62     1.621   .     S
Si3    O142    1.674   1_455 S
Si3    O152    1.616   1_455 S
Si4    O57     1.597   .     S
Si4    O58     1.633   .     S
Si4    C59     1.917   .     S
Si4    O90     1.637   .     S
Si5    C60     1.776   .     S
Si5    C69     1.847   .     S
Si5    C61     1.910   1_455 S
Si5    O140    1.572   1_455 S
Si6    O62     1.585   .     S
Si6    C63     1.936   .     S
Si6    C64     1.898   .     S
Si6    O71     1.625   .     S
Si7    O66     1.582   .     S
Si7    O76     1.608   .     S
Si7    C65     1.915   1_455 S
Si7    O158    1.590   1_455 S
Si8    O66     1.646   .     S
Si8    C67     1.911   .     S
Si8    C68     1.836   .     S
Si8    O106    1.627   .     S
Si9    C70     1.831   .     S
Si9    O71     1.597   .     S
Si9    C72     1.869   .     S
Si9    C73     1.876   .     S
Si10   C74     1.855   .     S
Si10   C80     1.856   .     S
Si10   C75     1.907   1_455 S
Si10   O159    1.601   1_455 S
Si11   O76     1.658   .     S
Si11   C77     1.895   .     S
Si11   C78     1.861   .     S
Si11   C79     1.868   .     S
Si12   C81     1.914   .     S
Si12   C82     1.854   .     S
Si12   C84     1.835   .     S
Si12   O130    1.626   .     S
Si13   C83     1.883   .     S
Si13   C85     1.809   .     S
Si13   C86     1.848   .     S
Si13   O123    1.617   .     S
Si14   O91     1.606   .     S
Si14   O138    1.594   .     S
Si14   C87     1.811   1_545 S
Si14   C88     1.806   1_545 S
Si15   C89     1.896   .     S
Si15   O90     1.600   .     S
Si15   O92     1.632   .     S
Si15   O101    1.622   .     S
Si16   O91     1.574   .     S
Si16   O102    1.566   .     S
Si16   O95     1.596   1_554 S
Si16   O151    1.632   1_554 S
Si17   O93     1.647   .     S
Si17   O143    1.545   .     S
Si17   O122    1.600   1_545 S
Si17   O126    1.565   1_545 S
Si18   O92     1.615   .     S
Si18   O93     1.640   .     S
Si18   O108    1.612   .     S
Si18   O139    1.659   .     S
Si19   O99     1.555   .     S
Si19   O148    1.651   .     S
Si19   O132    1.579   1_545 S
Si19   O136    1.623   1_545 S
Si20   C94     1.905   .     S
Si20   O95     1.617   .     S
Si20   C96     1.861   .     S
Si20   C97     1.860   .     S
Si21   C98     1.878   .     S
Si21   O99     1.602   .     S
Si21   C100    1.799   .     S
Si21   O144    1.613   .     S
Si22   O101    1.601   .     S
Si22   O102    1.635   .     S
Si22   C103    1.813   .     S
Si22   C104    1.864   .     S
Si23   C105    1.802   .     S
Si23   O106    1.654   .     S
Si23   O112    1.613   .     S
Si23   C115    1.840   .     S
Si24   C107    1.891   .     S
Si24   O108    1.634   .     S
Si24   O113    1.642   .     S
Si24   O166    1.592   .     S
Si25   C109    1.874   .     S
Si25   C110    1.913   .     S
Si25   C111    1.841   .     S
Si25   O119    1.601   .     S
Si26   O112    1.625   .     S
Si26   O113    1.641   .     S
Si26   C114    1.826   .     S
Si26   O120    1.636   .     S
Si27   C116    1.953   .     S
Si27   C117    1.876   .     S
Si27   C118    1.844   .     S
Si27   O174    1.597   .     S
Si28   O119    1.589   .     S
Si28   O120    1.657   .     S
Si28   O125    1.592   .     S
Si28   O181    1.583   .     S
Si29   C121    1.871   .     S
Si29   O122    1.572   .     S
Si29   O123    1.596   .     S
Si29   O134    1.595   .     S
Si30   C124    1.916   .     S
Si30   O125    1.597   .     S
Si30   O126    1.663   .     S
Si30   O176    1.583   .     S
Si31   C127    1.888   .     S
Si31   C128    1.843   .     S
Si31   C129    1.891   .     S
Si31   O135    1.579   .     S
Si32   O130    1.570   .     S
Si32   C131    1.888   .     S
Si32   O132    1.631   .     S
Si32   C133    1.896   .     S
Si33   O134    1.601   .     S
Si33   O135    1.559   .     S
Si33   O136    1.637   .     S
Si33   O183    1.670   .     S
Si34   O137    1.570   .     S
Si34   O141    1.621   .     S
Si34   O175    1.611   1_545 S
Si34   O179    1.565   1_545 S
Si35   O138    1.548   .     S
Si35   O139    1.605   .     S
Si35   O146    1.665   .     S
Si35   O156    1.613   .     S
Si36   O141    1.601   .     S
Si36   O157    1.613   .     S
Si36   O140    1.584   1_554 S
Si36   O149    1.610   1_554 S
Si37   O142    1.598   .     S
Si37   O147    1.615   .     S
Si37   O182    1.545   1_545 S
Si37   O187    1.651   1_545 S
Si38   O143    1.563   .     S
Si38   O144    1.590   .     S
Si38   O153    1.601   .     S
Si38   O162    1.592   .     S
Si39   O145    1.603   .     S
Si39   O146    1.600   .     S
Si39   O147    1.630   .     S
Si39   O163    1.609   .     S
Si40   O148    1.615   .     S
Si40   O149    1.582   .     S
Si40   C150    1.815   .     S
Si40   O151    1.640   .     S
Si41   O152    1.607   .     S
Si41   O153    1.587   .     S
Si41   C154    1.866   .     S
Si41   C155    1.874   .     S
Si42   O156    1.637   .     S
Si42   O157    1.587   .     S
Si42   O158    1.618   .     S
Si42   O160    1.610   .     S
Si43   O160    1.587   .     S
Si43   C161    1.832   .     S
Si43   O159    1.608   1_554 S
Si43   O171    1.607   1_554 S
Si44   O162    1.560   .     S
Si44   O163    1.585   .     S
Si44   C164    1.885   .     S
Si44   C165    1.873   .     S
Si45   O166    1.599   .     S
Si45   C167    1.846   .     S
Si45   C168    1.795   .     S
Si45   C169    1.776   .     S
Si46   C170    1.818   .     S
Si46   O171    1.583   .     S
Si46   C172    1.907   .     S
Si46   C173    1.917   .     S
Si47   O174    1.621   .     S
Si47   O175    1.556   .     S
Si47   O176    1.632   .     S
Si47   O185    1.531   .     S
Si48   C178    1.832   .     S
Si48   O179    1.570   .     S
Si48   C177    1.846   1_554 S
Si48   C180    1.893   1_554 S
Si49   O181    1.691   .     S
Si49   O182    1.568   .     S
Si49   O183    1.610   .     S
Si49   O189    1.558   .     S
Si50   C184    1.866   .     S
Si50   O185    1.554   .     S
Si50   C186    1.857   .     S
Si50   O187    1.616   .     S
Si51   C188    1.836   .     S
Si51   O189    1.593   .     S
Si51   C190    1.870   .     S
Si51   C191    1.859   .     S
C52    H192    1.130   .     S
C52    H193    1.076   .     S
C52    H194    1.151   .     S
C53    H195    1.072   .     S
C53    H196    1.095   .     S
C53    H197    1.163   .     S
C54    H198    1.095   .     S
C54    H199    1.105   .     S
C54    H200    1.150   .     S
C54    Si2     1.843   1_565 S
C55    H201    1.151   .     S
C55    H202    1.097   .     S
C55    H203    1.087   .     S
C55    Si2     1.893   1_565 S
C56    H204    1.082   .     S
C56    H205    1.139   .     S
C56    H206    1.083   .     S
C59    H207    1.160   .     S
C59    H208    1.163   .     S
C59    H209    1.133   .     S
C60    H210    1.080   .     S
C60    H211    1.122   .     S
C60    H212    1.122   .     S
C61    H213    1.101   .     S
C61    H214    1.055   .     S
C61    H215    1.121   .     S
C61    Si5     1.910   1_655 S
C63    H216    1.104   .     S
C63    H217    1.130   .     S
C63    H218    1.107   .     S
C64    H219    1.079   .     S
C64    H220    1.123   .     S
C64    H221    1.087   .     S
C65    H222    1.137   .     S
C65    H223    1.057   .     S
C65    H224    1.127   .     S
C65    Si7     1.915   1_655 S
C67    H225    1.113   .     S
C67    H226    1.104   .     S
C67    H227    1.080   .     S
C68    H228    1.049   .     S
C68    H229    1.130   .     S
C68    H230    1.094   .     S
C69    H231    1.097   .     S
C69    H232    1.085   .     S
C69    H233    1.075   .     S
C70    H234    1.112   .     S
C70    H235    1.079   .     S
C70    H236    1.068   .     S
C72    H237    1.119   .     S
C72    H238    1.105   .     S
C72    H239    1.175   .     S
C73    H240    1.116   .     S
C73    H241    1.112   .     S
C73    H242    1.054   .     S
C74    H243    1.136   .     S
C74    H244    1.121   .     S
C74    H245    1.047   .     S
C75    H246    1.126   .     S
C75    H247    1.045   .     S
C75    H248    1.134   .     S
C75    Si10    1.907   1_655 S
C77    H249    1.115   .     S
C77    H250    1.100   .     S
C77    H251    1.136   .     S
C78    H252    1.112   .     S
C78    H253    1.105   .     S
C78    H254    1.098   .     S
C79    H255    1.099   .     S
C79    H256    1.078   .     S
C79    H257    1.091   .     S
C80    H258    1.126   .     S
C80    H259    1.058   .     S
C80    H260    1.081   .     S
C81    H261    1.111   .     S
C81    H262    1.078   .     S
C81    H263    1.084   .     S
C82    H264    1.113   .     S
C82    H265    1.091   .     S
C82    H266    1.081   .     S
C83    H267    1.066   .     S
C83    H268    1.124   .     S
C83    H269    1.129   .     S
C84    H270    1.113   .     S
C84    H271    1.159   .     S
C84    H272    1.117   .     S
C85    H273    1.116   .     S
C85    H274    1.055   .     S
C85    H275    1.099   .     S
C86    H276    1.105   .     S
C86    H277    1.079   .     S
C86    H278    1.107   .     S
C87    H279    1.130   .     S
C87    H280    1.130   .     S
C87    H281    1.100   .     S
C87    Si14    1.811   1_565 S
C88    H282    1.101   .     S
C88    H283    1.113   .     S
C88    H284    1.110   .     S
C88    Si14    1.806   1_565 S
C89    H285    1.109   .     S
C89    H286    1.080   .     S
C89    H287    1.097   .     S
C94    H288    1.055   .     S
C94    H289    1.086   .     S
C94    H290    1.102   .     S
O95    Si16    1.596   1_556 S
C96    H291    1.159   .     S
C96    H292    1.057   .     S
C96    H293    1.081   .     S
C97    H294    1.096   .     S
C97    H295    1.085   .     S
C97    H296    1.109   .     S
C98    H297    1.092   .     S
C98    H298    1.098   .     S
C98    H299    1.137   .     S
C100   H300    1.162   .     S
C100   H301    1.091   .     S
C100   H302    1.104   .     S
C103   H303    1.099   .     S
C103   H304    1.126   .     S
C103   H305    1.155   .     S
C104   H306    1.119   .     S
C104   H307    1.102   .     S
C104   H308    1.114   .     S
C105   H309    1.056   .     S
C105   H310    1.086   .     S
C105   H311    1.084   .     S
C107   H312    1.122   .     S
C107   H313    1.075   .     S
C107   H314    1.133   .     S
C109   H315    1.111   .     S
C109   H316    1.153   .     S
C109   H317    1.084   .     S
C110   H318    1.083   .     S
C110   H319    1.063   .     S
C110   H320    1.111   .     S
C111   H321    1.095   .     S
C111   H322    1.102   .     S
C111   H323    1.123   .     S
C114   H324    1.117   .     S
C114   H325    1.105   .     S
C114   H326    1.124   .     S
C115   H327    1.108   .     S
C115   H328    1.133   .     S
C115   H329    1.224   .     S
C116   H330    1.126   .     S
C116   H331    1.141   .     S
C116   H332    1.145   .     S
C117   H333    1.092   .     S
C117   H334    1.055   .     S
C117   H335    1.108   .     S
C118   H336    1.108   .     S
C118   H337    1.105   .     S
C118   H338    1.083   .     S
C121   H339    1.110   .     S
C121   H340    1.052   .     S
C121   H341    1.062   .     S
O122   Si17    1.600   1_565 S
C124   H342    1.101   .     S
C124   H343    1.120   .     S
C124   H344    1.129   .     S
O126   Si17    1.565   1_565 S
C127   H345    1.090   .     S
C127   H346    1.084   .     S
C127   H347    1.112   .     S
C128   H348    1.121   .     S
C128   H349    1.068   .     S
C128   H350    1.098   .     S
C129   H351    1.087   .     S
C129   H352    1.128   .     S
C129   H353    1.104   .     S
C131   H354    1.061   .     S
C131   H355    1.080   .     S
C131   H356    1.045   .     S
O132   Si19    1.579   1_565 S
C133   H357    1.121   .     S
C133   H358    1.097   .     S
C133   H359    1.150   .     S
O136   Si19    1.623   1_565 S
O137   Si1     1.595   1_655 S
O140   Si5     1.572   1_655 S
O140   Si36    1.584   1_556 S
O142   Si3     1.674   1_655 S
O145   Si1     1.596   1_655 S
O149   Si36    1.610   1_556 S
C150   H360    1.116   .     S
C150   H361    1.080   .     S
C150   H362    1.088   .     S
O151   Si16    1.632   1_556 S
O152   Si3     1.616   1_655 S
C154   H363    1.130   .     S
C154   H364    1.125   .     S
C154   H365    1.123   .     S
C155   H366    1.126   .     S
C155   H367    1.136   .     S
C155   H368    1.120   .     S
O158   Si7     1.590   1_655 S
O159   Si10    1.601   1_655 S
O159   Si43    1.608   1_556 S
C161   H369    1.092   .     S
C161   H370    1.070   .     S
C161   H371    1.072   .     S
C164   H372    1.178   .     S
C164   H373    1.133   .     S
C164   H374    1.134   .     S
C165   H375    1.145   .     S
C165   H376    1.074   .     S
C165   H377    1.058   .     S
C167   H378    1.119   .     S
C167   H379    1.097   .     S
C167   H380    1.072   .     S
C168   H381    1.104   .     S
C168   H382    1.110   .     S
C168   H383    1.033   .     S
C169   H384    1.105   .     S
C169   H385    1.087   .     S
C169   H386    1.125   .     S
C170   H387    1.126   .     S
C170   H388    1.154   .     S
C170   H389    1.095   .     S
O171   Si43    1.607   1_556 S
C172   H390    1.116   .     S
C172   H391    1.120   .     S
C172   H392    1.102   .     S
C173   H393    1.121   .     S
C173   H394    1.127   .     S
C173   H395    1.107   .     S
O175   Si34    1.611   1_565 S
C177   H396    1.095   .     S
C177   H397    1.085   .     S
C177   H398    1.074   .     S
C177   Si48    1.846   1_556 S
C178   H399    1.107   .     S
C178   H400    1.043   .     S
C178   H401    1.111   .     S
O179   Si34    1.565   1_565 S
C180   H402    1.098   .     S
C180   H403    1.125   .     S
C180   H404    1.094   .     S
C180   Si48    1.893   1_556 S
O182   Si37    1.545   1_565 S
C184   H405    1.074   .     S
C184   H406    1.105   .     S
C184   H407    1.024   .     S
C186   H408    1.129   .     S
C186   H409    1.124   .     S
C186   H410    1.077   .     S
O187   Si37    1.651   1_565 S
C188   H411    1.161   .     S
C188   H412    1.123   .     S
C188   H413    1.060   .     S
C190   H414    1.114   .     S
C190   H415    1.160   .     S
C190   H416    1.178   .     S
C191   H417    1.052   .     S
C191   H418    1.128   .     S
C191   H419    1.081   .     S
