data_333-9-11-16-15-30-14
_audit_creation_date              2025-03-07
_audit_creation_method            'Materials Studio'
_symmetry_space_group_name_H-M    'P1'
_symmetry_Int_Tables_number       1
_symmetry_cell_setting            triclinic
loop_
_symmetry_equiv_pos_as_xyz
  x,y,z
_cell_length_a                    19.0234
_cell_length_b                    16.8270
_cell_length_c                    19.9642
_cell_angle_alpha                 97.3749
_cell_angle_beta                  82.5472
_cell_angle_gamma                 124.2395
loop_
_atom_site_label
_atom_site_type_symbol
_atom_site_fract_x
_atom_site_fract_y
_atom_site_fract_z
_atom_site_U_iso_or_equiv
_atom_site_adp_type
_atom_site_occupancy
Si1    Si    0.03355   0.10206   0.22141   0.00000  Uiso   1.00
Si2    Si    0.16146   0.16292  -0.05832   0.00000  Uiso   1.00
Si3    Si    0.19459   0.04102   0.41296   0.00000  Uiso   1.00
Si4    Si    0.17833   0.15646   0.31422   0.00000  Uiso   1.00
Si5    Si    0.18571   0.05437   0.77048   0.00000  Uiso   1.00
Si6    Si   -0.00256   0.09164   0.88145   0.00000  Uiso   1.00
Si7    Si    0.15637   0.18386   0.70681   0.00000  Uiso   1.00
Si8    Si    0.04702   0.49641   0.27228   0.00000  Uiso   1.00
Si9    Si    0.19075   0.33808   0.39084   0.00000  Uiso   1.00
Si10   Si    0.18576   0.47465   0.31328   0.00000  Uiso   1.00
Si11   Si    0.11245   0.28977   0.82568   0.00000  Uiso   1.00
Si12   Si   -0.13199   0.43859   0.91714   0.00000  Uiso   1.00
Si13   Si    0.09429   0.41383   0.73462   0.00000  Uiso   1.00
Si14   Si    0.13066   0.61760   0.14944   0.00000  Uiso   1.00
Si15   Si    0.25630   0.89558  -0.13045   0.00000  Uiso   1.00
Si16   Si    0.10657   0.92218   0.53912   0.00000  Uiso   1.00
Si17   Si    0.09972   0.85900   0.31949   0.00000  Uiso   1.00
Si18   Si    0.08528   0.87692   0.85531   0.00000  Uiso   1.00
Si19   Si    0.21529   0.93741   0.64618   0.00000  Uiso   1.00
Si20   Si    0.30003   0.19756   0.18404   0.00000  Uiso   1.00
Si21   Si    0.43002   0.28810  -0.03475   0.00000  Uiso   1.00
Si22   Si    0.36373   0.10417   0.45682   0.00000  Uiso   1.00
Si23   Si    0.41969   0.13617   0.18912   0.00000  Uiso   1.00
Si24   Si    0.31737   0.24584   0.84808   0.00000  Uiso   1.00
Si25   Si    0.37445   0.36426   0.09513   0.00000  Uiso   1.00
Si26   Si    0.33808   0.48827   0.02212   0.00000  Uiso   1.00
Si27   Si    0.55545   0.22660   0.42806   0.00000  Uiso   1.00
Si28   Si    0.35773   0.43403   0.45853   0.00000  Uiso   1.00
Si29   Si    0.61046   0.52692   0.31211   0.00000  Uiso   1.00
Si30   Si    0.44444   0.41464   0.76164   0.00000  Uiso   1.00
Si31   Si    0.19809   0.44370   0.93927   0.00000  Uiso   1.00
Si32   Si    0.44736   0.70605   0.06274   0.00000  Uiso   1.00
Si33   Si    0.54569   0.58384   0.44622   0.00000  Uiso   1.00
Si34   Si    0.49653   0.83997   0.35174   0.00000  Uiso   1.00
Si35   Si    0.94668  -0.05494   0.10441   0.00000  Uiso   1.00
Si36   Si    0.87162   0.00342   0.00746   0.00000  Uiso   1.00
Si37   Si    0.72486  -0.01826   0.55290   0.00000  Uiso   1.00
Si38   Si    0.89504  -0.02054   0.75683   0.00000  Uiso   1.00
Si39   Si    0.62251   0.45278   0.96114   0.00000  Uiso   1.00
Si40   Si    0.62586   0.23364   0.77411   0.00000  Uiso   1.00
Si41   Si    0.76614   0.08819   0.04279   0.00000  Uiso   1.00
Si42   Si    0.91699   0.37915   0.48296   0.00000  Uiso   1.00
Si43   Si    0.95544   0.54268   0.39697   0.00000  Uiso   1.00
Si44   Si    0.73498   0.43508   0.84839   0.00000  Uiso   1.00
Si45   Si    0.83942   0.54035   0.71793   0.00000  Uiso   1.00
Si46   Si    0.68839   0.97632   0.32266   0.00000  Uiso   1.00
Si47   Si    0.99898   0.82913  -0.00153   0.00000  Uiso   1.00
Si48   Si    1.04900   0.71077   0.49853   0.00000  Uiso   1.00
Si49   Si    0.78428   0.93852   0.40869   0.00000  Uiso   1.00
Si50   Si    0.94979   0.75658   0.75909   0.00000  Uiso   1.00
Si51   Si    0.95838   0.87042   0.64847   0.00000  Uiso   1.00
C52    C     0.09629   0.22646   0.18598   0.00000  Uiso   1.00
C53    C     0.94533   0.10534   0.26682   0.00000  Uiso   1.00
C54    C     0.19257   0.09279  -0.02274   0.00000  Uiso   1.00
C55    C     0.12658   0.21175   0.01858   0.00000  Uiso   1.00
O56    O     0.09395   0.09825   0.27377   0.00000  Uiso   1.00
O57    O     0.17023   0.10157   0.37712   0.00000  Uiso   1.00
O58    O     0.08124   0.09950   0.89781   0.00000  Uiso   1.00
C59    C     0.08079   0.15334   0.64319   0.00000  Uiso   1.00
O60    O     0.14175   0.09551   0.74430   0.00000  Uiso   1.00
C61    C     0.11110   0.26972   0.45878   0.00000  Uiso   1.00
O62    O     0.19615   0.26228   0.33434   0.00000  Uiso   1.00
O63    O     0.10698   0.46092   0.28142   0.00000  Uiso   1.00
O64    O     0.15867   0.39372   0.35956   0.00000  Uiso   1.00
C65    C     0.23861   0.59374   0.36427   0.00000  Uiso   1.00
C66    C     0.25936   0.47754   0.23887   0.00000  Uiso   1.00
O67    O     0.03008   0.19265   0.85422   0.00000  Uiso   1.00
O68    O     0.16260   0.26160   0.76495   0.00000  Uiso   1.00
C69    C    -0.13444   0.34510   0.85741   0.00000  Uiso   1.00
C70    C    -0.02554   0.55304   0.91484   0.00000  Uiso   1.00
C71    C     0.83780   0.39182   1.00405   0.00000  Uiso   1.00
C72    C    -0.00168   0.32744   0.68661   0.00000  Uiso   1.00
O73    O     0.08930   0.35634   0.79693   0.00000  Uiso   1.00
C74    C     0.10120   0.52680   0.75795   0.00000  Uiso   1.00
O75    O     0.10240   0.58662   0.22653   0.00000  Uiso   1.00
C76    C     0.18256   0.55608   0.10893   0.00000  Uiso   1.00
C77    C     0.20445   0.74914   0.14761   0.00000  Uiso   1.00
C78    C     0.03460   0.56980   0.10199   0.00000  Uiso   1.00
C79    C     0.28219   0.81064  -0.18084   0.00000  Uiso   1.00
C80    C     0.25709   0.88931  -0.04001   0.00000  Uiso   1.00
C81    C     0.33393   1.01584   0.83529   0.00000  Uiso   1.00
O82    O     0.14021   1.00066   0.48398   0.00000  Uiso   1.00
C83    C    -0.01342   0.80977   0.36457   0.00000  Uiso   1.00
C84    C     0.11965   0.76227   0.30912   0.00000  Uiso   1.00
O85    O     0.17624   0.95852   0.35678   0.00000  Uiso   1.00
C86    C     0.08513   0.87938   0.23567   0.00000  Uiso   1.00
O87    O     0.16251   0.86448   0.85907   0.00000  Uiso   1.00
O88    O     0.11844   0.97034   0.81859   0.00000  Uiso   1.00
O89    O     0.18743   0.94982   0.57730   0.00000  Uiso   1.00
C90    C     0.15461   0.81144   0.66962   0.00000  Uiso   1.00
O91    O     0.21240   1.00821   0.70749   0.00000  Uiso   1.00
C92    C     0.32811   0.96450   0.63699   0.00000  Uiso   1.00
C93    C     0.22511   0.09442   0.13110   0.00000  Uiso   1.00
O94    O     0.26173   0.18286   0.26313   0.00000  Uiso   1.00
C95    C     0.43569   0.18843  -0.01521   0.00000  Uiso   1.00
O96    O     0.29392   0.10546   0.42373   0.00000  Uiso   1.00
C97    C     0.34227  -0.02039   0.45124   0.00000  Uiso   1.00
C98    C     0.37417   0.15900   0.54736   0.00000  Uiso   1.00
C99    C     0.25747   0.23879   0.65793   0.00000  Uiso   1.00
O100   O     0.38597   0.19694   0.17440   0.00000  Uiso   1.00
C101   C     0.38311   0.10278   0.27516   0.00000  Uiso   1.00
C102   C     0.37970   0.02630   0.12728   0.00000  Uiso   1.00
O103   O     0.26910   0.14125   0.80960   0.00000  Uiso   1.00
O104   O     0.38416   0.26105   0.89721   0.00000  Uiso   1.00
O105   O     0.24415   0.24388   0.89642   0.00000  Uiso   1.00
O106   O     0.31966   0.29307   0.15340   0.00000  Uiso   1.00
O107   O     0.37623   0.30282   0.02878   0.00000  Uiso   1.00
C108   C     0.48424   0.45267   0.11849   0.00000  Uiso   1.00
O109   O     0.33478   0.41904   0.07516   0.00000  Uiso   1.00
C110   C     0.41820   0.50891   0.95349   0.00000  Uiso   1.00
O111   O     0.45577   0.17015   0.41848   0.00000  Uiso   1.00
C112   C     0.53417   0.20174   0.17443   0.00000  Uiso   1.00
C113   C     0.56780   0.14001   0.46440   0.00000  Uiso   1.00
C114   C     0.59347   0.34299   0.48315   0.00000  Uiso   1.00
O115   O     0.28254   0.41330   0.41572   0.00000  Uiso   1.00
C116   C     0.35402   0.32154   0.45943   0.00000  Uiso   1.00
C117   C     0.34971   0.47445   0.54947   0.00000  Uiso   1.00
C118   C     0.19247   0.44913   0.67873   0.00000  Uiso   1.00
C119   C     0.63698   0.60257   0.24121   0.00000  Uiso   1.00
C120   C     0.61134   0.25150   0.34453   0.00000  Uiso   1.00
C121   C     0.50569   0.41154   0.29899   0.00000  Uiso   1.00
C122   C     0.68863   0.49889   0.31950   0.00000  Uiso   1.00
O123   O     0.36223   0.33522   0.80311   0.00000  Uiso   1.00
C124   C     0.46909   0.36108   0.68220   0.00000  Uiso   1.00
C125   C     0.43094   0.50878   0.74268   0.00000  Uiso   1.00
C126   C     0.54307   0.47462   0.80982   0.00000  Uiso   1.00
O127   O     0.17588   0.35479   0.88386   0.00000  Uiso   1.00
O128   O     0.24734   0.44706   0.99925   0.00000  Uiso   1.00
C129   C     0.26190   0.55861   0.89741   0.00000  Uiso   1.00
C130   C     0.08682   0.41562   0.96978   0.00000  Uiso   1.00
C131   C     0.40361   0.77818   0.09991   0.00000  Uiso   1.00
O132   O     0.37229   0.59540   0.05627   0.00000  Uiso   1.00
C133   C     0.49571   0.75427  -0.02313   0.00000  Uiso   1.00
O134   O     0.44930   0.51724   0.42846   0.00000  Uiso   1.00
O135   O     0.60362   0.58222   0.38259   0.00000  Uiso   1.00
C136   C     0.56623   0.53995   0.51878   0.00000  Uiso   1.00
C137   C     0.46439   0.88624   0.28985   0.00000  Uiso   1.00
C138   C     0.57068   0.70712   0.47301   0.00000  Uiso   1.00
C139   C     0.47863   0.72724   0.31361   0.00000  Uiso   1.00
C140   C     0.42865   0.82355   0.43264   0.00000  Uiso   1.00
O141   O     1.00447   0.01506   0.16356   0.00000  Uiso   1.00
O142   O     0.93110   0.07043   0.94690   0.00000  Uiso   1.00
O143   O     0.92635  -0.00054   0.05946   0.00000  Uiso   1.00
C144   C     0.64743   0.01029   0.54114   0.00000  Uiso   1.00
C145   C     0.82957   0.10062   0.57392   0.00000  Uiso   1.00
C146   C     0.66244   0.89589   0.62488   0.00000  Uiso   1.00
O147   O     0.95649   0.01285   0.82059   0.00000  Uiso   1.00
C148   C     0.78268   0.87661   0.77685   0.00000  Uiso   1.00
C149   C     0.66087   0.42471   1.02957   0.00000  Uiso   1.00
C150   C     0.65795   0.58068   0.97362   0.00000  Uiso   1.00
C151   C     0.78270  -0.11367   0.97471   0.00000  Uiso   1.00
O152   O     0.51993   0.38812   0.96247   0.00000  Uiso   1.00
C153   C     0.58814   0.13215   0.82568   0.00000  Uiso   1.00
C154   C     0.67263   0.20986   0.69220   0.00000  Uiso   1.00
C155   C     0.89016   0.08467   0.74675   0.00000  Uiso   1.00
C156   C     0.52710   0.23191   0.76690   0.00000  Uiso   1.00
C157   C     0.77638   0.11626  -0.04514   0.00000  Uiso   1.00
O158   O     0.82321   0.04873   0.04931   0.00000  Uiso   1.00
C159   C     0.80835   0.19723   0.09986   0.00000  Uiso   1.00
C160   C     0.65671  -0.00878   0.07215   0.00000  Uiso   1.00
C161   C     0.95018   0.40035   0.22516   0.00000  Uiso   1.00
C162   C     0.82589   0.31182   0.54461   0.00000  Uiso   1.00
C163   C     0.91663   0.29191   0.41301   0.00000  Uiso   1.00
C164   C     1.01945   0.42800   0.52311   0.00000  Uiso   1.00
O165   O     1.02159   0.52868   0.34515   0.00000  Uiso   1.00
C166   C     0.87472   0.52970   0.34817   0.00000  Uiso   1.00
O167   O     0.91596   0.45840   0.44892   0.00000  Uiso   1.00
O168   O     0.66117   0.44390   0.88698   0.00000  Uiso   1.00
O169   O     0.69560   0.32390   0.81939   0.00000  Uiso   1.00
O170   O     0.80402   0.46091   0.89727   0.00000  Uiso   1.00
C171   C     0.88726   0.47126   0.69533   0.00000  Uiso   1.00
C172   C     0.75950   0.51611   0.65754   0.00000  Uiso   1.00
O173   O     0.78144   0.50964   0.78766   0.00000  Uiso   1.00
C174   C     0.52772   0.71664   0.11092   0.00000  Uiso   1.00
C175   C     0.69688   0.92127   0.23743   0.00000  Uiso   1.00
C176   C     0.70378   1.09340   0.30741   0.00000  Uiso   1.00
C177   C     0.84571   0.83569   0.13953   0.00000  Uiso   1.00
O178   O     0.59622   0.91098   0.36143   0.00000  Uiso   1.00
O179   O     1.05087   0.88318   0.93251   0.00000  Uiso   1.00
C180   C     1.06221   0.79031   0.03324   0.00000  Uiso   1.00
O181   O     0.99697   0.90626   0.05560   0.00000  Uiso   1.00
C182   C     0.89214   0.71964   0.98138   0.00000  Uiso   1.00
C183   C     1.15582   0.72958   0.49026   0.00000  Uiso   1.00
O184   O     0.99917   0.64632   0.43404   0.00000  Uiso   1.00
O185   O     1.07028   0.81900   0.50122   0.00000  Uiso   1.00
C186   C     0.89836   1.00083   0.42413   0.00000  Uiso   1.00
O187   O     0.76065   0.99506   0.36764   0.00000  Uiso   1.00
C188   C     0.98776   0.64512   0.57003   0.00000  Uiso   1.00
C189   C     0.75600   0.82312   0.36510   0.00000  Uiso   1.00
O190   O     0.73462   0.92740   0.48249   0.00000  Uiso   1.00
C191   C     0.85893   0.75334   0.80890   0.00000  Uiso   1.00
O192   O     0.91434   0.64952   0.72694   0.00000  Uiso   1.00
O193   O     1.01791   0.78702   0.81369   0.00000  Uiso   1.00
O194   O     1.03603   0.92151   0.59217   0.00000  Uiso   1.00
C195   C     0.86213   0.77100   0.60540   0.00000  Uiso   1.00
O196   O     0.98653   0.83198   0.70266   0.00000  Uiso   1.00
O197   O     0.94043   0.94811   0.69018   0.00000  Uiso   1.00
H198   H     0.06548   0.22753   0.14537   0.00000  Uiso   1.00
H199   H     0.16499   0.24714   0.17063   0.00000  Uiso   1.00
H200   H     0.10271   0.27691   0.23155   0.00000  Uiso   1.00
H201   H     0.92285   0.13260   0.23293   0.00000  Uiso   1.00
H202   H     0.96046   0.14937   0.31238   0.00000  Uiso   1.00
H203   H     0.88920   0.02854   0.27502   0.00000  Uiso   1.00
H204   H     0.24636   0.14062   0.00899   0.00000  Uiso   1.00
H205   H     0.20608   0.05418  -0.06845   0.00000  Uiso   1.00
H206   H     0.13616   0.03766   0.01193   0.00000  Uiso   1.00
H207   H     0.18580   0.27007   0.04070   0.00000  Uiso   1.00
H208   H     0.08824   0.14874   0.05131   0.00000  Uiso   1.00
H209   H     0.09010   0.23907   0.00597   0.00000  Uiso   1.00
H210   H     0.10205   0.21597   0.61865   0.00000  Uiso   1.00
H211   H     0.01569   0.12301   0.66592   0.00000  Uiso   1.00
H212   H     0.08172   0.09791   0.60706   0.00000  Uiso   1.00
H213   H     0.12872   0.22518   0.47153   0.00000  Uiso   1.00
H214   H     0.04865   0.22596   0.43419   0.00000  Uiso   1.00
H215   H     0.11111   0.31914   0.50228   0.00000  Uiso   1.00
H216   H     0.27577   0.65464   0.33142   0.00000  Uiso   1.00
H217   H     0.28348   0.59804   0.39544   0.00000  Uiso   1.00
H218   H     0.19516   0.60143   0.40093   0.00000  Uiso   1.00
H219   H     0.30839   0.46719   0.24994   0.00000  Uiso   1.00
H220   H     0.28975   0.54898   0.21308   0.00000  Uiso   1.00
H221   H     0.21867   0.41678   0.20158   0.00000  Uiso   1.00
H222   H    -0.19056   0.28058   0.87098   0.00000  Uiso   1.00
H223   H    -0.08054   0.33470   0.86043   0.00000  Uiso   1.00
H224   H    -0.14280   0.34657   0.80434   0.00000  Uiso   1.00
H225   H    -0.02610   0.59355   0.96144   0.00000  Uiso   1.00
H226   H    -0.01531   0.59485   0.87044   0.00000  Uiso   1.00
H227   H     0.02515   0.54444   0.92350   0.00000  Uiso   1.00
H228   H     0.87503   0.36120   1.00968   0.00000  Uiso   1.00
H229   H     0.76579   0.34010   1.01211   0.00000  Uiso   1.00
H230   H     0.85066   0.44890   1.04356   0.00000  Uiso   1.00
H231   H    -0.02828   0.36121   0.66744   0.00000  Uiso   1.00
H232   H    -0.04455   0.27697   0.72393   0.00000  Uiso   1.00
H233   H     0.01862   0.29316   0.64498   0.00000  Uiso   1.00
H234   H     0.05188   0.51671   0.79884   0.00000  Uiso   1.00
H235   H     0.08945   0.54892   0.70997   0.00000  Uiso   1.00
H236   H     0.16786   0.57905   0.77566   0.00000  Uiso   1.00
H237   H     0.25200   0.59369   0.12263   0.00000  Uiso   1.00
H238   H     0.18647   0.56191   0.05631   0.00000  Uiso   1.00
H239   H     0.13989   0.48096   0.11330   0.00000  Uiso   1.00
H240   H     0.25975   0.78382   0.18205   0.00000  Uiso   1.00
H241   H     0.17764   0.79124   0.17327   0.00000  Uiso   1.00
H242   H     0.22561   0.76377   0.09572   0.00000  Uiso   1.00
H243   H     0.05794   0.60419   0.05263   0.00000  Uiso   1.00
H244   H    -0.00950   0.58721   0.13266   0.00000  Uiso   1.00
H245   H     0.00698   0.49224   0.09548   0.00000  Uiso   1.00
H246   H     0.23487   0.76085  -0.21952   0.00000  Uiso   1.00
H247   H     0.28643   0.77293  -0.14173   0.00000  Uiso   1.00
H248   H     0.34619   0.85494  -0.20519   0.00000  Uiso   1.00
H249   H     0.32320   0.91828  -0.02721   0.00000  Uiso   1.00
H250   H     0.21390   0.81454  -0.03117   0.00000  Uiso   1.00
H251   H     0.23287   0.93318  -0.01400   0.00000  Uiso   1.00
H252   H     0.33247   1.02185   0.77878   0.00000  Uiso   1.00
H253   H     0.40151   1.04687   0.84601   0.00000  Uiso   1.00
H254   H     0.32015   1.06861   0.86201   0.00000  Uiso   1.00
H255   H    -0.06158   0.77299   0.32906   0.00000  Uiso   1.00
H256   H    -0.02466   0.86889   0.38657   0.00000  Uiso   1.00
H257   H    -0.02784   0.75965   0.40235   0.00000  Uiso   1.00
H258   H     0.18795   0.80245   0.28851   0.00000  Uiso   1.00
H259   H     0.06609   0.70281   0.27837   0.00000  Uiso   1.00
H260   H     0.11606   0.74213   0.35815   0.00000  Uiso   1.00
H261   H     0.07709   0.94100   0.24456   0.00000  Uiso   1.00
H262   H     0.03228   0.81077   0.21767   0.00000  Uiso   1.00
H263   H     0.14956   0.90276   0.20374   0.00000  Uiso   1.00
H264   H     0.17600   0.76647   0.64354   0.00000  Uiso   1.00
H265   H     0.09233   0.78387   0.65623   0.00000  Uiso   1.00
H266   H     0.15334   0.80603   0.72460   0.00000  Uiso   1.00
H267   H     0.34467   0.94497   0.58704   0.00000  Uiso   1.00
H268   H     0.34378   0.93332   0.67645   0.00000  Uiso   1.00
H269   H     0.36844   1.04050   0.64103   0.00000  Uiso   1.00
H270   H     0.17636   0.10627   0.12193   0.00000  Uiso   1.00
H271   H     0.18973   0.02568   0.15673   0.00000  Uiso   1.00
H272   H     0.25612   0.07963   0.08491   0.00000  Uiso   1.00
H273   H     0.48036   0.21652   0.02781   0.00000  Uiso   1.00
H274   H     0.45982   0.16575  -0.06409   0.00000  Uiso   1.00
H275   H     0.36907   0.13064   0.00257   0.00000  Uiso   1.00
H276   H     0.35472  -0.03768   0.39720   0.00000  Uiso   1.00
H277   H     0.27187  -0.07179   0.46374   0.00000  Uiso   1.00
H278   H     0.37911  -0.03200   0.48273   0.00000  Uiso   1.00
H279   H     0.31288   0.12164   0.57767   0.00000  Uiso   1.00
H280   H     0.39362   0.23198   0.54936   0.00000  Uiso   1.00
H281   H     0.42350   0.15505   0.56801   0.00000  Uiso   1.00
H282   H     0.30026   0.22211   0.67420   0.00000  Uiso   1.00
H283   H     0.28456   0.31471   0.65734   0.00000  Uiso   1.00
H284   H     0.23787   0.20304   0.60663   0.00000  Uiso   1.00
H285   H     0.40953   0.06352   0.29052   0.00000  Uiso   1.00
H286   H     0.31638   0.06449   0.28354   0.00000  Uiso   1.00
H287   H     0.41301   0.17498   0.30742   0.00000  Uiso   1.00
H288   H     0.31127  -0.02642   0.13404   0.00000  Uiso   1.00
H289   H     0.40959  -0.01647   0.13709   0.00000  Uiso   1.00
H290   H     0.39820   0.04815   0.07836   0.00000  Uiso   1.00
H291   H     0.52051   0.50797   0.08196   0.00000  Uiso   1.00
H292   H     0.52037   0.41788   0.11847   0.00000  Uiso   1.00
H293   H     0.47114   0.48258   0.16961   0.00000  Uiso   1.00
H294   H     0.41947   0.54899   0.91419   0.00000  Uiso   1.00
H295   H     0.40942   0.43897   0.93241   0.00000  Uiso   1.00
H296   H     0.47806   0.56678   0.97512   0.00000  Uiso   1.00
H297   H     0.56388   0.27362   0.20332   0.00000  Uiso   1.00
H298   H     0.55749   0.21646   0.12048   0.00000  Uiso   1.00
H299   H     0.56378   0.16980   0.19534   0.00000  Uiso   1.00
H300   H     0.63746   0.18592   0.47160   0.00000  Uiso   1.00
H301   H     0.55213   0.07839   0.42504   0.00000  Uiso   1.00
H302   H     0.53522   0.12639   0.51719   0.00000  Uiso   1.00
H303   H     0.66153   0.37391   0.49014   0.00000  Uiso   1.00
H304   H     0.56495   0.33015   0.53399   0.00000  Uiso   1.00
H305   H     0.58454   0.39226   0.45432   0.00000  Uiso   1.00
H306   H     0.29071   0.26760   0.48401   0.00000  Uiso   1.00
H307   H     0.40622   0.33689   0.48801   0.00000  Uiso   1.00
H308   H     0.36570   0.29873   0.41003   0.00000  Uiso   1.00
H309   H     0.40133   0.48768   0.58165   0.00000  Uiso   1.00
H310   H     0.28538   0.41782   0.56934   0.00000  Uiso   1.00
H311   H     0.34810   0.54113   0.54922   0.00000  Uiso   1.00
H312   H     0.25011   0.50387   0.70362   0.00000  Uiso   1.00
H313   H     0.18743   0.47267   0.62962   0.00000  Uiso   1.00
H314   H     0.19782   0.38750   0.66272   0.00000  Uiso   1.00
H315   H     0.58451   0.60665   0.23451   0.00000  Uiso   1.00
H316   H     0.65043   0.56267   0.19788   0.00000  Uiso   1.00
H317   H     0.69468   0.67369   0.25373   0.00000  Uiso   1.00
H318   H     0.58181   0.27740   0.31479   0.00000  Uiso   1.00
H319   H     0.60095   0.18215   0.32143   0.00000  Uiso   1.00
H320   H     0.67939   0.30468   0.34436   0.00000  Uiso   1.00
H321   H     0.46156   0.43305   0.30039   0.00000  Uiso   1.00
H322   H     0.48949   0.36627   0.34019   0.00000  Uiso   1.00
H323   H     0.51393   0.39413   0.24708   0.00000  Uiso   1.00
H324   H     0.66919   0.45481   0.36429   0.00000  Uiso   1.00
H325   H     0.74831   0.56581   0.33124   0.00000  Uiso   1.00
H326   H     0.69842   0.46571   0.26825   0.00000  Uiso   1.00
H327   H     0.53937   0.41244   0.67346   0.00000  Uiso   1.00
H328   H     0.44275   0.36850   0.63847   0.00000  Uiso   1.00
H329   H     0.44826   0.28539   0.68210   0.00000  Uiso   1.00
H330   H     0.38899   0.48338   0.70169   0.00000  Uiso   1.00
H331   H     0.49266   0.56996   0.71885   0.00000  Uiso   1.00
H332   H     0.40859   0.53584   0.78691   0.00000  Uiso   1.00
H333   H     0.60305   0.51090   0.77426   0.00000  Uiso   1.00
H334   H     0.54089   0.41157   0.82467   0.00000  Uiso   1.00
H335   H     0.54632   0.52538   0.85192   0.00000  Uiso   1.00
H336   H     0.31652   0.56422   0.86871   0.00000  Uiso   1.00
H337   H     0.29396   0.61876   0.93634   0.00000  Uiso   1.00
H338   H     0.22384   0.57738   0.87054   0.00000  Uiso   1.00
H339   H     0.06141   0.37823   1.01689   0.00000  Uiso   1.00
H340   H     0.04236   0.37697   0.92768   0.00000  Uiso   1.00
H341   H     0.09500   0.48650   0.98380   0.00000  Uiso   1.00
H342   H     0.46214   0.85364   0.09631   0.00000  Uiso   1.00
H343   H     0.38024   0.76790   0.15575   0.00000  Uiso   1.00
H344   H     0.35534   0.76802   0.06565   0.00000  Uiso   1.00
H345   H     0.53446   0.83096  -0.01164   0.00000  Uiso   1.00
H346   H     0.44433   0.73417  -0.05501   0.00000  Uiso   1.00
H347   H     0.53964   0.73189  -0.03972   0.00000  Uiso   1.00
H348   H     0.51884   0.45903   0.52339   0.00000  Uiso   1.00
H349   H     0.57501   0.58147   0.56936   0.00000  Uiso   1.00
H350   H     0.63564   0.56291   0.50223   0.00000  Uiso   1.00
H351   H     0.48734   0.96461   0.30016   0.00000  Uiso   1.00
H352   H     0.39874   0.83482   0.28146   0.00000  Uiso   1.00
H353   H     0.49058   0.88106   0.23897   0.00000  Uiso   1.00
H354   H     0.51502   0.69503   0.51442   0.00000  Uiso   1.00
H355   H     0.57330   0.74521   0.43101   0.00000  Uiso   1.00
H356   H     0.63557   0.75467   0.49061   0.00000  Uiso   1.00
H357   H     0.54026   0.73521   0.30792   0.00000  Uiso   1.00
H358   H     0.46276   0.71938   0.25969   0.00000  Uiso   1.00
H359   H     0.42462   0.66446   0.33690   0.00000  Uiso   1.00
H360   H     0.46072   0.89316   0.46418   0.00000  Uiso   1.00
H361   H     0.42740   0.77457   0.46159   0.00000  Uiso   1.00
H362   H     0.36007   0.79539   0.42652   0.00000  Uiso   1.00
H363   H     0.58951  -0.05772   0.53492   0.00000  Uiso   1.00
H364   H     0.66748   0.05821   0.49930   0.00000  Uiso   1.00
H365   H     0.64233   0.04525   0.59127   0.00000  Uiso   1.00
H366   H     0.80423   0.12553   0.62289   0.00000  Uiso   1.00
H367   H     0.85538   0.15422   0.53518   0.00000  Uiso   1.00
H368   H     0.87771   0.08664   0.58235   0.00000  Uiso   1.00
H369   H     0.60486   0.82800   0.60078   0.00000  Uiso   1.00
H370   H     0.64384   0.93309   0.66913   0.00000  Uiso   1.00
H371   H     0.70329   0.87427   0.64007   0.00000  Uiso   1.00
H372   H     0.74007   0.90058   0.78646   0.00000  Uiso   1.00
H373   H     0.77759   0.84325   0.82158   0.00000  Uiso   1.00
H374   H     0.76002   0.82146   0.73460   0.00000  Uiso   1.00
H375   H     0.65063   0.35457   1.01882   0.00000  Uiso   1.00
H376   H     0.63096   0.42601   1.08101   0.00000  Uiso   1.00
H377   H     0.72821   0.48070   1.03257   0.00000  Uiso   1.00
H378   H     0.66921   0.60788   1.03090   0.00000  Uiso   1.00
H379   H     0.60475   0.57696   0.96217   0.00000  Uiso   1.00
H380   H     0.71582   0.63054   0.94266   0.00000  Uiso   1.00
H381   H     0.73785  -0.15050   1.02323   0.00000  Uiso   1.00
H382   H     0.80981  -0.15361   0.94839   0.00000  Uiso   1.00
H383   H     0.74666  -0.09993   0.93982   0.00000  Uiso   1.00
H384   H     0.56515   0.06507   0.79534   0.00000  Uiso   1.00
H385   H     0.54536   0.13048   0.86553   0.00000  Uiso   1.00
H386   H     0.64597   0.13815   0.84072   0.00000  Uiso   1.00
H387   H     0.71575   0.27740   0.66616   0.00000  Uiso   1.00
H388   H     0.61447   0.15267   0.66120   0.00000  Uiso   1.00
H389   H     0.70663   0.17985   0.70414   0.00000  Uiso   1.00
H390   H     0.94856   0.15737   0.75608   0.00000  Uiso   1.00
H391   H     0.83707   0.08391   0.78079   0.00000  Uiso   1.00
H392   H     0.87769   0.07545   0.69564   0.00000  Uiso   1.00
H393   H     0.54563   0.30021   0.74305   0.00000  Uiso   1.00
H394   H     0.50320   0.23032   0.82148   0.00000  Uiso   1.00
H395   H     0.47805   0.16920   0.73668   0.00000  Uiso   1.00
H396   H     0.84141   0.16681  -0.06136   0.00000  Uiso   1.00
H397   H     0.74285   0.15123  -0.05517   0.00000  Uiso   1.00
H398   H     0.74369   0.04688  -0.07793   0.00000  Uiso   1.00
H399   H     0.87632   0.24615   0.08730   0.00000  Uiso   1.00
H400   H     0.80479   0.18178   0.15152   0.00000  Uiso   1.00
H401   H     0.77929   0.23691   0.08962   0.00000  Uiso   1.00
H402   H     0.64244  -0.06920   0.03950   0.00000  Uiso   1.00
H403   H     0.61324   0.01595   0.06061   0.00000  Uiso   1.00
H404   H     0.65789  -0.01977   0.12353   0.00000  Uiso   1.00
H405   H     0.91177   0.42835   0.21582   0.00000  Uiso   1.00
H406   H     0.90874   0.34030   0.25558   0.00000  Uiso   1.00
H407   H     0.97711   0.38040   0.17584   0.00000  Uiso   1.00
H408   H     0.85406   0.31561   0.58988   0.00000  Uiso   1.00
H409   H     0.77909   0.23566   0.52686   0.00000  Uiso   1.00
H410   H     0.79445   0.34857   0.54934   0.00000  Uiso   1.00
H411   H     0.92099   0.24459   0.43998   0.00000  Uiso   1.00
H412   H     0.97028   0.32207   0.37640   0.00000  Uiso   1.00
H413   H     0.85271   0.25546   0.39114   0.00000  Uiso   1.00
H414   H     1.06987   0.45855   0.48165   0.00000  Uiso   1.00
H415   H     1.02010   0.36835   0.54728   0.00000  Uiso   1.00
H416   H     1.03228   0.49169   0.56352   0.00000  Uiso   1.00
H417   H     0.84014   0.55566   0.38158   0.00000  Uiso   1.00
H418   H     0.83245   0.45565   0.32856   0.00000  Uiso   1.00
H419   H     0.90532   0.58177   0.30994   0.00000  Uiso   1.00
H420   H     0.83722   0.39363   0.69822   0.00000  Uiso   1.00
H421   H     0.93805   0.48939   0.72718   0.00000  Uiso   1.00
H422   H     0.91774   0.48439   0.64248   0.00000  Uiso   1.00
H423   H     0.73434   0.56101   0.67657   0.00000  Uiso   1.00
H424   H     0.70769   0.44108   0.65660   0.00000  Uiso   1.00
H425   H     0.78426   0.53159   0.60455   0.00000  Uiso   1.00
H426   H     0.56919   0.79304   0.11459   0.00000  Uiso   1.00
H427   H     0.55917   0.68316   0.08231   0.00000  Uiso   1.00
H428   H     0.49726   0.68137   0.15925   0.00000  Uiso   1.00
H429   H     0.63722   0.88570   0.21159   0.00000  Uiso   1.00
H430   H     0.71544   0.87008   0.24794   0.00000  Uiso   1.00
H431   H     0.74833   0.97756   0.20605   0.00000  Uiso   1.00
H432   H     0.67724   1.09827   0.26097   0.00000  Uiso   1.00
H433   H     0.77451   1.15210   0.30173   0.00000  Uiso   1.00
H434   H     0.66945   1.10658   0.35362   0.00000  Uiso   1.00
H435   H     0.80341   0.85479   0.16915   0.00000  Uiso   1.00
H436   H     0.85903   0.79746   0.17360   0.00000  Uiso   1.00
H437   H     0.81245   0.78910   0.09526   0.00000  Uiso   1.00
H438   H     1.11952   0.85716   0.05350   0.00000  Uiso   1.00
H439   H     1.08260   0.76342  -0.01324   0.00000  Uiso   1.00
H440   H     1.02741   0.74248   0.07427   0.00000  Uiso   1.00
H441   H     0.89163   0.67902   0.93614   0.00000  Uiso   1.00
H442   H     0.85581   0.75199   0.97388   0.00000  Uiso   1.00
H443   H     0.85768   0.67022   1.02274   0.00000  Uiso   1.00
H444   H     1.19127   0.78437   0.53225   0.00000  Uiso   1.00
H445   H     1.18874   0.75669   0.44233   0.00000  Uiso   1.00
H446   H     1.15902   0.66458   0.49267   0.00000  Uiso   1.00
H447   H     0.92492   1.07955   0.44663   0.00000  Uiso   1.00
H448   H     0.93215   0.99978   0.37468   0.00000  Uiso   1.00
H449   H     0.89976   0.96049   0.46170   0.00000  Uiso   1.00
H450   H     1.02163   0.63111   0.60248   0.00000  Uiso   1.00
H451   H     0.93301   0.57435   0.55421   0.00000  Uiso   1.00
H452   H     0.96686   0.68357   0.59915   0.00000  Uiso   1.00
H453   H     0.68876   0.78096   0.35950   0.00000  Uiso   1.00
H454   H     0.76856   0.78236   0.40014   0.00000  Uiso   1.00
H455   H     0.78950   0.82863   0.31604   0.00000  Uiso   1.00
H456   H     0.87372   0.81983   0.83535   0.00000  Uiso   1.00
H457   H     0.83510   0.70137   0.84191   0.00000  Uiso   1.00
H458   H     0.80202   0.72255   0.77631   0.00000  Uiso   1.00
H459   H     0.83297   0.78760   0.56968   0.00000  Uiso   1.00
H460   H     0.81516   0.73078   0.64741   0.00000  Uiso   1.00
H461   H     0.88397   0.73027   0.57356   0.00000  Uiso   1.00
loop_
_geom_bond_atom_site_label_1
_geom_bond_atom_site_label_2
_geom_bond_distance
_geom_bond_site_symmetry_2
_ccdc_geom_bond_type
Si1    C52     1.912   .     S
Si1    O56     1.682   .     S
Si1    C53     1.827   1_455 S
Si1    O141    1.614   1_455 S
Si2    C54     1.832   .     S
Si2    C55     1.870   .     S
Si2    O58     1.584   1_554 S
Si2    O105    1.638   1_554 S
Si3    O57     1.603   .     S
Si3    O96     1.591   .     S
Si3    O82     1.618   1_545 S
Si3    O85     1.569   1_545 S
Si4    O56     1.597   .     S
Si4    O57     1.594   .     S
Si4    O62     1.619   .     S
Si4    O94     1.630   .     S
Si5    O60     1.520   .     S
Si5    O103    1.638   .     S
Si5    O88     1.598   1_545 S
Si5    O91     1.572   1_545 S
Si6    O58     1.598   .     S
Si6    O67     1.591   .     S
Si6    O142    1.616   1_455 S
Si6    O147    1.585   1_455 S
Si7    C59     1.849   .     S
Si7    O60     1.617   .     S
Si7    O68     1.595   .     S
Si7    C99     1.803   .     S
Si8    O63     1.594   .     S
Si8    O75     1.598   .     S
Si8    C161    1.897   1_455 S
Si8    O165    1.599   1_455 S
Si9    C61     1.834   .     S
Si9    O62     1.630   .     S
Si9    O64     1.591   .     S
Si9    O115    1.573   .     S
Si10   O63     1.589   .     S
Si10   O64     1.544   .     S
Si10   C65     1.881   .     S
Si10   C66     1.890   .     S
Si11   O67     1.605   .     S
Si11   O68     1.633   .     S
Si11   O73     1.601   .     S
Si11   O127    1.598   .     S
Si12   C69     1.830   .     S
Si12   C70     1.850   .     S
Si12   C71     1.882   1_455 S
Si12   O170    1.568   1_455 S
Si13   C72     1.864   .     S
Si13   O73     1.633   .     S
Si13   C74     1.832   .     S
Si13   C118    1.862   .     S
Si14   O75     1.614   .     S
Si14   C76     1.852   .     S
Si14   C77     1.839   .     S
Si14   C78     1.866   .     S
Si15   C79     1.895   .     S
Si15   C80     1.825   .     S
Si15   C81     1.864   1_554 S
Si15   O87     1.587   1_554 S
Si16   O82     1.614   .     S
Si16   O89     1.604   .     S
Si16   O185    1.585   1_455 S
Si16   O194    1.594   1_455 S
Si17   C83     1.952   .     S
Si17   C84     1.850   .     S
Si17   O85     1.642   .     S
Si17   C86     1.836   .     S
Si18   O87     1.608   .     S
Si18   O88     1.571   .     S
Si18   O179    1.609   1_455 S
Si18   O193    1.547   1_455 S
Si19   O89     1.613   .     S
Si19   C90     1.846   .     S
Si19   O91     1.613   .     S
Si19   C92     1.915   .     S
Si20   C93     1.816   .     S
Si20   O94     1.638   .     S
Si20   O100    1.627   .     S
Si20   O106    1.617   .     S
Si21   C95     1.833   .     S
Si21   O107    1.608   .     S
Si21   O104    1.586   1_554 S
Si21   O152    1.588   1_554 S
Si22   O96     1.570   .     S
Si22   C97     1.887   .     S
Si22   C98     1.902   .     S
Si22   O111    1.602   .     S
Si23   O100    1.552   .     S
Si23   C101    1.802   .     S
Si23   C102    1.896   .     S
Si23   C112    1.805   .     S
Si24   O103    1.596   .     S
Si24   O104    1.592   .     S
Si24   O105    1.575   .     S
Si24   O123    1.581   .     S
Si25   O106    1.585   .     S
Si25   O107    1.581   .     S
Si25   C108    1.836   .     S
Si25   O109    1.592   .     S
Si26   O109    1.643   .     S
Si26   O132    1.618   .     S
Si26   C110    1.818   1_554 S
Si26   O128    1.564   1_554 S
Si27   O111    1.598   .     S
Si27   C113    1.845   .     S
Si27   C114    1.905   .     S
Si27   C120    1.818   .     S
Si28   O115    1.605   .     S
Si28   C116    1.857   .     S
Si28   C117    1.874   .     S
Si28   O134    1.599   .     S
Si29   C119    1.853   .     S
Si29   C121    1.860   .     S
Si29   C122    1.822   .     S
Si29   O135    1.617   .     S
Si30   O123    1.585   .     S
Si30   C124    1.861   .     S
Si30   C125    1.832   .     S
Si30   C126    1.885   .     S
Si31   O127    1.620   .     S
Si31   O128    1.590   .     S
Si31   C129    1.850   .     S
Si31   C130    1.920   .     S
Si32   C131    1.860   .     S
Si32   O132    1.587   .     S
Si32   C133    1.885   .     S
Si32   C174    1.823   .     S
Si33   O134    1.581   .     S
Si33   O135    1.578   .     S
Si33   C136    1.882   .     S
Si33   C138    1.867   .     S
Si34   C137    1.867   .     S
Si34   C139    1.806   .     S
Si34   C140    1.877   .     S
Si34   O178    1.596   .     S
Si35   O141    1.585   .     S
Si35   O143    1.579   .     S
Si35   C177    1.890   1_545 S
Si35   O181    1.609   1_545 S
Si36   O143    1.595   .     S
Si36   O158    1.598   .     S
Si36   O142    1.604   1_554 S
Si36   C151    1.838   1_554 S
Si37   C144    1.836   .     S
Si37   C145    1.914   .     S
Si37   C146    1.929   1_545 S
Si37   O190    1.625   1_545 S
Si38   O147    1.663   .     S
Si38   C155    1.862   .     S
Si38   C148    1.875   1_545 S
Si38   O197    1.682   1_545 S
Si39   C149    1.853   .     S
Si39   C150    1.850   .     S
Si39   O152    1.611   .     S
Si39   O168    1.594   .     S
Si40   C153    1.836   .     S
Si40   C154    1.866   .     S
Si40   C156    1.886   .     S
Si40   O169    1.605   .     S
Si41   C157    1.834   .     S
Si41   O158    1.583   .     S
Si41   C159    1.831   .     S
Si41   C160    1.856   .     S
Si42   C162    1.843   .     S
Si42   C163    1.890   .     S
Si42   C164    1.884   .     S
Si42   O167    1.583   .     S
Si43   O165    1.626   .     S
Si43   C166    1.820   .     S
Si43   O167    1.621   .     S
Si43   O184    1.574   .     S
Si44   O168    1.585   .     S
Si44   O169    1.629   .     S
Si44   O170    1.564   .     S
Si44   O173    1.640   .     S
Si45   C171    1.826   .     S
Si45   C172    1.893   .     S
Si45   O173    1.602   .     S
Si45   O192    1.573   .     S
Si46   C175    1.863   .     S
Si46   C176    1.882   .     S
Si46   O178    1.606   .     S
Si46   O187    1.598   .     S
Si47   C180    1.890   .     S
Si47   O181    1.628   .     S
Si47   O179    1.580   1_554 S
Si47   C182    1.856   1_554 S
Si48   C183    1.860   .     S
Si48   O184    1.592   .     S
Si48   O185    1.623   .     S
Si48   C188    1.772   .     S
Si49   C186    1.853   .     S
Si49   O187    1.599   .     S
Si49   C189    1.825   .     S
Si49   O190    1.615   .     S
Si50   C191    1.855   .     S
Si50   O192    1.600   .     S
Si50   O193    1.614   .     S
Si50   O196    1.591   .     S
Si51   O194    1.604   .     S
Si51   C195    1.866   .     S
Si51   O196    1.611   .     S
Si51   O197    1.633   .     S
C52    H198    1.068   .     S
C52    H199    1.155   .     S
C52    H200    1.130   .     S
C53    H201    1.107   .     S
C53    H202    1.055   .     S
C53    H203    1.137   .     S
C53    Si1     1.827   1_655 S
C54    H204    1.098   .     S
C54    H205    1.138   .     S
C54    H206    1.159   .     S
C55    H207    1.096   .     S
C55    H208    1.126   .     S
C55    H209    1.091   .     S
O58    Si2     1.584   1_556 S
C59    H210    1.056   .     S
C59    H211    1.097   .     S
C59    H212    1.111   .     S
C61    H213    1.045   .     S
C61    H214    1.126   .     S
C61    H215    1.123   .     S
C65    H216    1.103   .     S
C65    H217    1.085   .     S
C65    H218    1.084   .     S
C66    H219    1.093   .     S
C66    H220    1.159   .     S
C66    H221    1.123   .     S
C69    H222    1.043   .     S
C69    H223    1.143   .     S
C69    H224    1.097   .     S
C70    H225    1.083   .     S
C70    H226    1.131   .     S
C70    H227    1.090   .     S
C71    H228    1.107   .     S
C71    H229    1.139   .     S
C71    H230    1.093   .     S
C71    Si12    1.882   1_655 S
C72    H231    1.075   .     S
C72    H232    1.080   .     S
C72    H233    1.103   .     S
C74    H234    1.110   .     S
C74    H235    1.160   .     S
C74    H236    1.135   .     S
C76    H237    1.153   .     S
C76    H238    1.057   .     S
C76    H239    1.058   .     S
C77    H240    1.146   .     S
C77    H241    1.127   .     S
C77    H242    1.068   .     S
C78    H243    1.117   .     S
C78    H244    1.123   .     S
C78    H245    1.095   .     S
C79    H246    1.129   .     S
C79    H247    1.104   .     S
C79    H248    1.092   .     S
C80    H249    1.116   .     S
C80    H250    1.070   .     S
C80    H251    1.118   .     S
C81    H252    1.151   .     S
C81    H253    1.122   .     S
C81    H254    1.116   .     S
C81    Si15    1.864   1_556 S
O82    Si3     1.618   1_565 S
C83    H255    1.069   .     S
C83    H256    1.154   .     S
C83    H257    1.098   .     S
C84    H258    1.122   .     S
C84    H259    1.128   .     S
C84    H260    1.058   .     S
O85    Si3     1.569   1_565 S
C86    H261    1.120   .     S
C86    H262    1.074   .     S
C86    H263    1.176   .     S
O87    Si15    1.587   1_556 S
O88    Si5     1.598   1_565 S
C90    H264    1.095   .     S
C90    H265    1.059   .     S
C90    H266    1.109   .     S
O91    Si5     1.572   1_565 S
C92    H267    1.074   .     S
C92    H268    1.152   .     S
C92    H269    1.056   .     S
C93    H270    1.093   .     S
C93    H271    1.113   .     S
C93    H272    1.107   .     S
C95    H273    1.147   .     S
C95    H274    1.138   .     S
C95    H275    1.124   .     S
C97    H276    1.112   .     S
C97    H277    1.126   .     S
C97    H278    1.106   .     S
C98    H279    1.100   .     S
C98    H280    1.061   .     S
C98    H281    1.110   .     S
C99    H282    1.094   .     S
C99    H283    1.077   .     S
C99    H284    1.113   .     S
C101   H285    1.118   .     S
C101   H286    1.052   .     S
C101   H287    1.154   .     S
C102   H288    1.089   .     S
C102   H289    1.185   .     S
C102   H290    1.034   .     S
O104   Si21    1.586   1_556 S
O105   Si2     1.638   1_556 S
C108   H291    1.093   .     S
C108   H292    1.126   .     S
C108   H293    1.140   .     S
C110   H294    1.088   .     S
C110   H295    1.122   .     S
C110   H296    1.097   .     S
C110   Si26    1.818   1_556 S
C112   H297    1.119   .     S
C112   H298    1.113   .     S
C112   H299    1.113   .     S
C113   H300    1.115   .     S
C113   H301    1.134   .     S
C113   H302    1.131   .     S
C114   H303    1.112   .     S
C114   H304    1.074   .     S
C114   H305    1.163   .     S
C116   H306    1.116   .     S
C116   H307    1.095   .     S
C116   H308    1.054   .     S
C117   H309    1.144   .     S
C117   H310    1.105   .     S
C117   H311    1.140   .     S
C118   H312    1.089   .     S
C118   H313    1.138   .     S
C118   H314    1.102   .     S
C119   H315    1.064   .     S
C119   H316    1.119   .     S
C119   H317    1.103   .     S
C120   H318    1.134   .     S
C120   H319    1.113   .     S
C120   H320    1.083   .     S
C121   H321    1.082   .     S
C121   H322    1.088   .     S
C121   H323    1.056   .     S
C122   H324    1.124   .     S
C122   H325    1.084   .     S
C122   H326    1.146   .     S
C124   H327    1.115   .     S
C124   H328    1.114   .     S
C124   H329    1.100   .     S
C125   H330    1.089   .     S
C125   H331    1.134   .     S
C125   H332    1.089   .     S
C126   H333    1.138   .     S
C126   H334    1.115   .     S
C126   H335    1.100   .     S
O128   Si26    1.564   1_556 S
C129   H336    1.080   .     S
C129   H337    1.108   .     S
C129   H338    1.146   .     S
C130   H339    1.098   .     S
C130   H340    1.127   .     S
C130   H341    1.114   .     S
C131   H342    1.126   .     S
C131   H343    1.142   .     S
C131   H344    1.139   .     S
C133   H345    1.076   .     S
C133   H346    1.100   .     S
C133   H347    1.096   .     S
C136   H348    1.142   .     S
C136   H349    1.126   .     S
C136   H350    1.161   .     S
C137   H351    1.130   .     S
C137   H352    1.067   .     S
C137   H353    1.087   .     S
C138   H354    1.192   .     S
C138   H355    1.099   .     S
C138   H356    1.103   .     S
C139   H357    1.094   .     S
C139   H358    1.127   .     S
C139   H359    1.081   .     S
C140   H360    1.117   .     S
C140   H361    1.054   .     S
C140   H362    1.128   .     S
O141   Si1     1.614   1_655 S
O142   Si6     1.616   1_655 S
O142   Si36    1.604   1_556 S
C144   H363    1.058   .     S
C144   H364    1.112   .     S
C144   H365    1.116   .     S
C145   H366    1.168   .     S
C145   H367    1.111   .     S
C145   H368    1.102   .     S
C146   H369    1.151   .     S
C146   H370    1.150   .     S
C146   H371    1.112   .     S
C146   Si37    1.929   1_565 S
O147   Si6     1.585   1_655 S
C148   H372    1.079   .     S
C148   H373    1.080   .     S
C148   H374    1.096   .     S
C148   Si38    1.875   1_565 S
C149   H375    1.079   .     S
C149   H376    1.111   .     S
C149   H377    1.086   .     S
C150   H378    1.175   .     S
C150   H379    1.032   .     S
C150   H380    1.102   .     S
C151   H381    1.181   .     S
C151   H382    1.106   .     S
C151   H383    1.163   .     S
C151   Si36    1.838   1_556 S
O152   Si21    1.588   1_556 S
C153   H384    1.082   .     S
C153   H385    1.053   .     S
C153   H386    1.124   .     S
C154   H387    1.108   .     S
C154   H388    1.166   .     S
C154   H389    1.081   .     S
C155   H390    1.110   .     S
C155   H391    1.137   .     S
C155   H392    1.050   .     S
C156   H393    1.146   .     S
C156   H394    1.122   .     S
C156   H395    1.106   .     S
C157   H396    1.068   .     S
C157   H397    1.131   .     S
C157   H398    1.127   .     S
C159   H399    1.088   .     S
C159   H400    1.080   .     S
C159   H401    1.128   .     S
C160   H402    1.048   .     S
C160   H403    1.171   .     S
C160   H404    1.071   .     S
C161   H405    1.112   .     S
C161   H406    1.072   .     S
C161   H407    1.150   .     S
C161   Si8     1.897   1_655 S
C162   H408    1.087   .     S
C162   H409    1.114   .     S
C162   H410    1.066   .     S
C163   H411    1.062   .     S
C163   H412    1.073   .     S
C163   H413    1.129   .     S
C164   H414    1.104   .     S
C164   H415    1.175   .     S
C164   H416    1.181   .     S
O165   Si8     1.599   1_655 S
C166   H417    1.097   .     S
C166   H418    1.087   .     S
C166   H419    1.082   .     S
O170   Si12    1.568   1_655 S
C171   H420    1.105   .     S
C171   H421    1.099   .     S
C171   H422    1.120   .     S
C172   H423    1.109   .     S
C172   H424    1.079   .     S
C172   H425    1.101   .     S
C174   H426    1.063   .     S
C174   H427    1.100   .     S
C174   H428    1.111   .     S
C175   H429    1.105   .     S
C175   H430    1.148   .     S
C175   H431    1.094   .     S
C176   H432    1.144   .     S
C176   H433    1.137   .     S
C176   H434    1.132   .     S
C177   H435    1.104   .     S
C177   H436    1.132   .     S
C177   H437    1.098   .     S
C177   Si35    1.890   1_565 S
O179   Si18    1.609   1_655 S
O179   Si47    1.580   1_556 S
C180   H438    1.111   .     S
C180   H439    1.101   .     S
C180   H440    1.089   .     S
O181   Si35    1.609   1_565 S
C182   H441    1.058   .     S
C182   H442    1.126   .     S
C182   H443    1.107   .     S
C182   Si47    1.856   1_556 S
C183   H444    1.121   .     S
C183   H445    1.073   .     S
C183   H446    1.136   .     S
O185   Si16    1.585   1_655 S
C186   H447    1.168   .     S
C186   H448    1.110   .     S
C186   H449    1.086   .     S
C188   H450    1.100   .     S
C188   H451    1.094   .     S
C188   H452    1.024   .     S
C189   H453    1.071   .     S
C189   H454    1.169   .     S
C189   H455    1.081   .     S
O190   Si37    1.625   1_565 S
C191   H456    1.069   .     S
C191   H457    1.014   .     S
C191   H458    1.153   .     S
O193   Si18    1.547   1_655 S
O194   Si16    1.594   1_655 S
C195   H459    1.106   .     S
C195   H460    1.109   .     S
C195   H461    1.089   .     S
O197   Si38    1.682   1_565 S
