data_333-9-11-16-15-30-8
_audit_creation_date              2025-03-07
_audit_creation_method            'Materials Studio'
_symmetry_space_group_name_H-M    'P1'
_symmetry_Int_Tables_number       1
_symmetry_cell_setting            triclinic
loop_
_symmetry_equiv_pos_as_xyz
  x,y,z
_cell_length_a                    16.3439
_cell_length_b                    18.3787
_cell_length_c                    18.7277
_cell_angle_alpha                 88.8086
_cell_angle_beta                  83.0834
_cell_angle_gamma                 123.7608
loop_
_atom_site_label
_atom_site_type_symbol
_atom_site_fract_x
_atom_site_fract_y
_atom_site_fract_z
_atom_site_U_iso_or_equiv
_atom_site_adp_type
_atom_site_occupancy
Si1    Si    0.20068   0.00418   0.13365   0.00000  Uiso   1.00
Si2    Si   -0.01059   0.13048   0.24943   0.00000  Uiso   1.00
Si3    Si   -0.03051   0.13947   0.61065   0.00000  Uiso   1.00
Si4    Si    0.09894   0.13210   0.37701   0.00000  Uiso   1.00
Si5    Si    0.19930   0.04683   0.86490   0.00000  Uiso   1.00
Si6    Si    0.08623   0.24715   0.87014   0.00000  Uiso   1.00
Si7    Si    0.18162   0.29101   0.15799   0.00000  Uiso   1.00
Si8    Si    0.03729   0.58029   0.24439   0.00000  Uiso   1.00
Si9    Si    0.19033   0.55780  -0.11030   0.00000  Uiso   1.00
Si10   Si    0.11842   0.26789   0.47966   0.00000  Uiso   1.00
Si11   Si   -0.08262   0.40249   0.51417   0.00000  Uiso   1.00
Si12   Si    0.18533   0.43129   0.38796   0.00000  Uiso   1.00
Si13   Si    0.01982   0.57886   0.87236   0.00000  Uiso   1.00
Si14   Si    0.18724   0.73517   0.12940   0.00000  Uiso   1.00
Si15   Si    0.21901   0.88710   0.03066   0.00000  Uiso   1.00
Si16   Si    0.08139   0.66084   0.71728   0.00000  Uiso   1.00
Si17   Si    0.05215   0.87793   0.95998   0.00000  Uiso   1.00
Si18   Si    0.54308   0.00759   0.12246   0.00000  Uiso   1.00
Si19   Si    0.54672   0.16289   0.05557   0.00000  Uiso   1.00
Si20   Si    0.47193   0.02930   0.42074   0.00000  Uiso   1.00
Si21   Si    0.41633   0.19187   0.62499   0.00000  Uiso   1.00
Si22   Si    0.53877   0.01109   0.78627   0.00000  Uiso   1.00
Si23   Si    0.54457   0.13342   0.66461   0.00000  Uiso   1.00
Si24   Si    0.53079   0.29793   0.14735   0.00000  Uiso   1.00
Si25   Si    0.52535   0.59219   0.04999   0.00000  Uiso   1.00
Si26   Si    0.51723   0.33194   0.49642   0.00000  Uiso   1.00
Si27   Si    0.28158   0.38075   0.56842   0.00000  Uiso   1.00
Si28   Si    0.46165   0.71043   0.10203   0.00000  Uiso   1.00
Si29   Si    0.35137   0.84292   0.21633   0.00000  Uiso   1.00
Si30   Si    0.53788   0.87944   0.01138   0.00000  Uiso   1.00
Si31   Si    0.25893   0.89202   0.49986   0.00000  Uiso   1.00
Si32   Si    0.68201   0.76941   0.82389   0.00000  Uiso   1.00
Si33   Si    0.39089   0.89494   0.91931   0.00000  Uiso   1.00
Si34   Si    0.88438  -0.00171   0.13096   0.00000  Uiso   1.00
Si35   Si    0.70166   0.15586   0.19348   0.00000  Uiso   1.00
Si36   Si    0.95591   0.14854   0.01371   0.00000  Uiso   1.00
Si37   Si    0.71316  -0.02265   0.38546   0.00000  Uiso   1.00
Si38   Si    0.65023   0.15020   0.50100   0.00000  Uiso   1.00
Si39   Si    0.82743   0.16232   0.30471   0.00000  Uiso   1.00
Si40   Si    0.67925   0.47288   0.20198   0.00000  Uiso   1.00
Si41   Si    0.84150   0.56378  -0.02710   0.00000  Uiso   1.00
Si42   Si    0.81146   0.30889   0.38816   0.00000  Uiso   1.00
Si43   Si    0.66425   0.51045   0.54973   0.00000  Uiso   1.00
Si44   Si    0.81564   0.47481   0.31067   0.00000  Uiso   1.00
Si45   Si    0.70990   0.48961   0.85438   0.00000  Uiso   1.00
Si46   Si    0.82526   0.65722   0.10196   0.00000  Uiso   1.00
Si47   Si    0.85725   0.84075   0.06406   0.00000  Uiso   1.00
Si48   Si    0.79839   0.59743   0.40266   0.00000  Uiso   1.00
Si49   Si    0.53784   0.86300   0.50970   0.00000  Uiso   1.00
Si50   Si    0.72605   0.86609   0.95850   0.00000  Uiso   1.00
Si51   Si    0.59684   0.74323   0.55352   0.00000  Uiso   1.00
C52    C     0.16671   0.07863   0.09398   0.00000  Uiso   1.00
C53    C     0.30099   0.06586   0.18340   0.00000  Uiso   1.00
C54    C     0.08374   0.91368   0.18634   0.00000  Uiso   1.00
C55    C     0.05825   0.11311   0.63678   0.00000  Uiso   1.00
C56    C     0.92454   0.18840   0.67881   0.00000  Uiso   1.00
O57    O     0.02424   0.10888   0.31764   0.00000  Uiso   1.00
C58    C     0.04116   0.04007   0.45141   0.00000  Uiso   1.00
C59    C     0.20983   0.14027   0.33148   0.00000  Uiso   1.00
C60    C     0.12297   0.02272   0.78980   0.00000  Uiso   1.00
C61    C     0.26166   0.16167   0.89197   0.00000  Uiso   1.00
C62    C     0.29638   1.02258   0.83217   0.00000  Uiso   1.00
C63    C     0.21872   0.33830   0.86589   0.00000  Uiso   1.00
C64    C    -0.00002   0.28267   0.84977   0.00000  Uiso   1.00
C65    C     1.07746   0.17718   0.80129   0.00000  Uiso   1.00
O66    O     0.08410   0.19911   0.19105   0.00000  Uiso   1.00
C67    C     0.21164   0.28711   0.06105   0.00000  Uiso   1.00
C68    C     0.27797   0.31198   0.21215   0.00000  Uiso   1.00
C69    C     1.02826   0.48869   0.19461   0.00000  Uiso   1.00
C70    C     0.15219   0.37545   0.15993   0.00000  Uiso   1.00
C71    C     0.12260   0.47285  -0.02678   0.00000  Uiso   1.00
C72    C     0.20137   0.51745   0.79652   0.00000  Uiso   1.00
O73    O     0.01945   0.20399   0.53510   0.00000  Uiso   1.00
O74    O     0.12759   0.21734   0.41261   0.00000  Uiso   1.00
C75    C     0.00516   0.38739   0.55701   0.00000  Uiso   1.00
C76    C    -0.04305   0.51488   0.49343   0.00000  Uiso   1.00
C77    C     0.80986   0.34501   0.59037   0.00000  Uiso   1.00
C78    C     0.11040   0.59883   0.31748   0.00000  Uiso   1.00
C79    C     0.09627   0.40365   0.32594   0.00000  Uiso   1.00
O80    O     0.11965   0.34785   0.44681   0.00000  Uiso   1.00
C81    C     0.22650   0.53650   0.42572   0.00000  Uiso   1.00
C82    C     0.30258   0.44718   0.34231   0.00000  Uiso   1.00
O83    O     0.12711   0.60026   0.89121   0.00000  Uiso   1.00
C84    C     0.94219   0.46485   0.85807   0.00000  Uiso   1.00
O85    O     0.09315   0.67156   0.19235   0.00000  Uiso   1.00
C86    C     0.32181   0.63617  -0.09535   0.00000  Uiso   1.00
C87    C     0.17716   0.67235   0.05301   0.00000  Uiso   1.00
O88    O     0.18691   0.81563   0.09250   0.00000  Uiso   1.00
O89    O     0.23734   0.97033   0.06940   0.00000  Uiso   1.00
O90    O     0.03779   0.63278   0.79995   0.00000  Uiso   1.00
C91    C     0.04813   0.55979   0.67054   0.00000  Uiso   1.00
C92    C     0.01805   0.70962   0.67753   0.00000  Uiso   1.00
O93    O     0.11909   0.85156   0.99576   0.00000  Uiso   1.00
O94    O     0.12450   0.97863   0.93037   0.00000  Uiso   1.00
C95    C     1.00206   0.80562   0.88387   0.00000  Uiso   1.00
O96    O     0.51121   0.06758   0.09321   0.00000  Uiso   1.00
C97    C     0.45478   0.14691   0.99797   0.00000  Uiso   1.00
C98    C     0.65988   0.20325   0.98764   0.00000  Uiso   1.00
C99    C     0.43110   0.10218   0.39146   0.00000  Uiso   1.00
C100   C     0.51307   0.99744   0.34049   0.00000  Uiso   1.00
C101   C     0.28977   0.12124   0.60253   0.00000  Uiso   1.00
C102   C     0.41693   0.24885   0.70741   0.00000  Uiso   1.00
C103   C     0.66463   0.09769   0.80917   0.00000  Uiso   1.00
C104   C     0.54827   0.91498   0.76313   0.00000  Uiso   1.00
O105   O     0.45012   0.13099   0.64747   0.00000  Uiso   1.00
O106   O     0.51611   0.04679   0.71364   0.00000  Uiso   1.00
C107   C     0.60922   0.22689   0.72014   0.00000  Uiso   1.00
C108   C     0.46404   0.25365   0.24394   0.00000  Uiso   1.00
O109   O     0.56447   0.23442   0.11370   0.00000  Uiso   1.00
C110   C     0.45839   0.31324   0.08506   0.00000  Uiso   1.00
C111   C     0.52648   0.55330   0.14482   0.00000  Uiso   1.00
C112   C     0.41423   0.49847   1.01156   0.00000  Uiso   1.00
O113   O     0.48687   0.25864   0.55808   0.00000  Uiso   1.00
C114   C     0.61013   0.33331   0.42867   0.00000  Uiso   1.00
C115   C     0.40438   0.29865   0.45229   0.00000  Uiso   1.00
O116   O     0.21165   0.30598   0.52231   0.00000  Uiso   1.00
C117   C     0.32413   0.34253   0.63606   0.00000  Uiso   1.00
C118   C     0.39153   0.47907   0.50963   0.00000  Uiso   1.00
C119   C     0.21797   0.42207   0.62478   0.00000  Uiso   1.00
C120   C     0.33188   0.61384   0.13066   0.00000  Uiso   1.00
O121   O     0.51416   0.67265   0.05433   0.00000  Uiso   1.00
C122   C     0.51965   0.74051   0.18595   0.00000  Uiso   1.00
O123   O     0.29095   0.77927   0.15849   0.00000  Uiso   1.00
C124   C     0.36132   0.77265   0.28534   0.00000  Uiso   1.00
O125   O     0.45658   0.93296   0.18433   0.00000  Uiso   1.00
C126   C     0.27119   0.87219   0.26504   0.00000  Uiso   1.00
O127   O     0.46674   0.78764   0.05986   0.00000  Uiso   1.00
O128   O     0.56513   0.96430   0.05677   0.00000  Uiso   1.00
C129   C     0.18981   0.93260   0.45770   0.00000  Uiso   1.00
C130   C     0.19698   0.77350   0.48754   0.00000  Uiso   1.00
O131   O     0.37286   0.94545   0.46362   0.00000  Uiso   1.00
C132   C     0.27001   0.92344   0.59348   0.00000  Uiso   1.00
C133   C     0.55977   0.67310   0.81174   0.00000  Uiso   1.00
C134   C     0.77048   0.73951   0.79728   0.00000  Uiso   1.00
C135   C     0.70797   0.86190   0.76266   0.00000  Uiso   1.00
C136   C     0.21594   0.74674   0.70008   0.00000  Uiso   1.00
C137   C     0.29846   0.80602   0.86918   0.00000  Uiso   1.00
O138   O     0.46273   0.87206   0.95433   0.00000  Uiso   1.00
O139   O     0.46135   0.98186   0.85966   0.00000  Uiso   1.00
O140   O     0.32381   0.91138   0.98065   0.00000  Uiso   1.00
O141   O     0.92231   0.04072   0.20621   0.00000  Uiso   1.00
C142   C     0.75476   0.96660   0.13555   0.00000  Uiso   1.00
O143   O     0.63839   0.06741   0.15818   0.00000  Uiso   1.00
C144   C     0.79282   0.25230   0.12318   0.00000  Uiso   1.00
C145   C     0.63103   0.18536   0.25172   0.00000  Uiso   1.00
O146   O     1.04165   0.18573   0.94558   0.00000  Uiso   1.00
O147   O     0.95345   0.07378   0.06357   0.00000  Uiso   1.00
C148   C     0.97931   0.24420   0.06198   0.00000  Uiso   1.00
C149   C     0.83083   0.11340   0.98963   0.00000  Uiso   1.00
C150   C     0.81060  -0.03081   0.41463   0.00000  Uiso   1.00
C151   C     0.85225   0.03080   0.59814   0.00000  Uiso   1.00
C152   C     0.66784   0.90970   0.30994   0.00000  Uiso   1.00
O153   O     0.55571   0.07225   0.47228   0.00000  Uiso   1.00
C154   C     0.74430   0.12595   0.51010   0.00000  Uiso   1.00
O155   O     0.62317   0.16192   0.58788   0.00000  Uiso   1.00
O156   O     0.93187   0.17422   0.27671   0.00000  Uiso   1.00
O157   O     0.76888   0.14471   0.23957   0.00000  Uiso   1.00
O158   O     0.76250   0.07991   0.36456   0.00000  Uiso   1.00
O159   O     0.62665   0.39638   0.15301   0.00000  Uiso   1.00
C160   C     0.57785   0.46954   0.26731   0.00000  Uiso   1.00
O161   O     0.95350   0.59383   0.93572   0.00000  Uiso   1.00
C162   C     0.78346   0.45687   0.02703   0.00000  Uiso   1.00
O163   O     0.70743   0.23907   0.44363   0.00000  Uiso   1.00
O164   O     0.84332   0.25070   0.33777   0.00000  Uiso   1.00
O165   O     0.89127   0.35171   0.44457   0.00000  Uiso   1.00
O166   O     0.56651   0.42575   0.52757   0.00000  Uiso   1.00
C167   C     0.73749   0.47596   0.58360   0.00000  Uiso   1.00
C168   C     0.63541   0.55317   0.62754   0.00000  Uiso   1.00
O169   O     0.92889   0.55227   0.28160   0.00000  Uiso   1.00
O170   O     0.75419   0.46149   0.24561   0.00000  Uiso   1.00
O171   O     0.80531   0.38194   0.33590   0.00000  Uiso   1.00
C172   C     0.67372   0.37726   0.87743   0.00000  Uiso   1.00
O173   O     0.77601   0.55265   0.91103   0.00000  Uiso   1.00
C174   C     0.79153   0.52814   0.76621   0.00000  Uiso   1.00
C175   C     0.58688   0.47743   0.85843   0.00000  Uiso   1.00
C176   C     0.64017   0.61881   0.99135   0.00000  Uiso   1.00
O177   O     0.73311   0.56653   0.15321   0.00000  Uiso   1.00
O178   O     0.83803   0.63135   0.02301   0.00000  Uiso   1.00
C179   C     0.94120   0.69141   0.13616   0.00000  Uiso   1.00
O180   O     0.95617   0.86846   1.00839   0.00000  Uiso   1.00
O181   O     0.81725   0.74159   0.10011   0.00000  Uiso   1.00
O182   O     0.88431   0.91127   0.11791   0.00000  Uiso   1.00
O183   O     0.73468   0.58179   0.48096   0.00000  Uiso   1.00
O184   O     0.77816   0.51024   0.37305   0.00000  Uiso   1.00
C185   C     0.77768   0.66194   0.33645   0.00000  Uiso   1.00
C186   C     0.93322   0.67452   0.40829   0.00000  Uiso   1.00
C187   C     0.42751   0.76689   0.47288   0.00000  Uiso   1.00
O188   O     0.61273   0.93582   0.44426   0.00000  Uiso   1.00
C189   C     0.50203   0.90660   0.58111   0.00000  Uiso   1.00
O190   O     0.68403   0.78798   0.90529   0.00000  Uiso   1.00
O191   O     0.76758   0.83827   1.02344   0.00000  Uiso   1.00
C192   C     0.83855   0.95583   0.90106   0.00000  Uiso   1.00
O193   O     0.64181   0.88925   0.97743   0.00000  Uiso   1.00
C194   C     0.59203   0.69596   0.46345   0.00000  Uiso   1.00
O195   O     0.59538   0.82653   0.54389   0.00000  Uiso   1.00
C196   C     0.48794   0.67088   0.62253   0.00000  Uiso   1.00
C197   C     0.71781   0.77666   0.58472   0.00000  Uiso   1.00
H198   H     0.09479   0.03869   0.07092   0.00000  Uiso   1.00
H199   H     0.22278   0.11700   0.04459   0.00000  Uiso   1.00
H200   H     0.16395   0.12137   0.13293   0.00000  Uiso   1.00
H201   H     0.32976   0.13712   0.17067   0.00000  Uiso   1.00
H202   H     0.36263   0.05944   0.16590   0.00000  Uiso   1.00
H203   H     0.27696   0.04344   0.24314   0.00000  Uiso   1.00
H204   H     0.07034   0.94560   0.23510   0.00000  Uiso   1.00
H205   H     0.09169   0.85849   0.20675   0.00000  Uiso   1.00
H206   H     0.02397   0.89071   0.15386   0.00000  Uiso   1.00
H207   H     0.02372   0.06620   0.68315   0.00000  Uiso   1.00
H208   H     0.13397   0.17394   0.64131   0.00000  Uiso   1.00
H209   H     0.07219   0.08071   0.59778   0.00000  Uiso   1.00
H210   H     0.86563   0.19515   0.65955   0.00000  Uiso   1.00
H211   H     0.98641   0.24709   0.69387   0.00000  Uiso   1.00
H212   H     0.88355   0.13539   0.72395   0.00000  Uiso   1.00
H213   H     0.00539  -0.02362   0.42582   0.00000  Uiso   1.00
H214   H    -0.01823   0.03910   0.48471   0.00000  Uiso   1.00
H215   H     0.10696   0.05643   0.47651   0.00000  Uiso   1.00
H216   H     0.21834   0.09149   0.35898   0.00000  Uiso   1.00
H217   H     0.27756   0.20517   0.33286   0.00000  Uiso   1.00
H218   H     0.20206   0.13210   0.27465   0.00000  Uiso   1.00
H219   H     0.09158  -0.04203   0.76513   0.00000  Uiso   1.00
H220   H     0.17153   0.07980   0.74757   0.00000  Uiso   1.00
H221   H     0.05454   0.01959   0.81075   0.00000  Uiso   1.00
H222   H     0.20613   0.17320   0.91939   0.00000  Uiso   1.00
H223   H     0.29657   0.20866   0.84442   0.00000  Uiso   1.00
H224   H     0.31654   0.17525   0.92988   0.00000  Uiso   1.00
H225   H     0.31133   1.02871   0.77185   0.00000  Uiso   1.00
H226   H     0.27010   0.95764   0.85110   0.00000  Uiso   1.00
H227   H     0.36575   1.07108   0.85592   0.00000  Uiso   1.00
H228   H     0.26280   0.30954   0.87892   0.00000  Uiso   1.00
H229   H     0.22788   0.38653   0.90464   0.00000  Uiso   1.00
H230   H     0.24976   0.36620   0.80810   0.00000  Uiso   1.00
H231   H     0.03028   0.32637   0.79748   0.00000  Uiso   1.00
H232   H    -0.01272   0.31240   0.89785   0.00000  Uiso   1.00
H233   H    -0.07321   0.22119   0.85126   0.00000  Uiso   1.00
H234   H     1.13517   0.16475   0.79950   0.00000  Uiso   1.00
H235   H     1.08767   0.21293   0.74697   0.00000  Uiso   1.00
H236   H     0.99921   0.11857   0.80896   0.00000  Uiso   1.00
H237   H     0.16335   0.22117   0.04575   0.00000  Uiso   1.00
H238   H     0.29226   0.30458   0.05296   0.00000  Uiso   1.00
H239   H     0.21026   0.32908   0.02130   0.00000  Uiso   1.00
H240   H     0.34259   0.37935   0.19495   0.00000  Uiso   1.00
H241   H     0.28964   0.25894   0.20342   0.00000  Uiso   1.00
H242   H     0.25115   0.30913   0.26689   0.00000  Uiso   1.00
H243   H     0.98993   0.47182   0.14633   0.00000  Uiso   1.00
H244   H     0.98030   0.42775   0.23315   0.00000  Uiso   1.00
H245   H     1.10633   0.50179   0.18780   0.00000  Uiso   1.00
H246   H     0.07245   0.34412   0.18552   0.00000  Uiso   1.00
H247   H     0.17429   0.41093   0.10737   0.00000  Uiso   1.00
H248   H     0.19991   0.42048   0.19768   0.00000  Uiso   1.00
H249   H     0.12242   0.41516  -0.04283   0.00000  Uiso   1.00
H250   H     0.04952   0.46135  -0.00554   0.00000  Uiso   1.00
H251   H     0.17075   0.50128   0.01458   0.00000  Uiso   1.00
H252   H     0.25283   0.58237   0.75937   0.00000  Uiso   1.00
H253   H     0.13358   0.48437   0.77894   0.00000  Uiso   1.00
H254   H     0.23152   0.47560   0.79445   0.00000  Uiso   1.00
H255   H    -0.01011   0.32151   0.55480   0.00000  Uiso   1.00
H256   H     0.00178   0.40272   0.61536   0.00000  Uiso   1.00
H257   H     0.08217   0.43544   0.53662   0.00000  Uiso   1.00
H258   H     0.04018   0.56468   0.48427   0.00000  Uiso   1.00
H259   H    -0.06435   0.54026   0.53862   0.00000  Uiso   1.00
H260   H    -0.06371   0.53019   0.44336   0.00000  Uiso   1.00
H261   H     0.80173   0.28200   0.60710   0.00000  Uiso   1.00
H262   H     0.74292   0.32809   0.56834   0.00000  Uiso   1.00
H263   H     0.83219   0.38990   0.63965   0.00000  Uiso   1.00
H264   H     0.17940   0.60748   0.30012   0.00000  Uiso   1.00
H265   H     0.06745   0.53780   0.35601   0.00000  Uiso   1.00
H266   H     0.11892   0.64823   0.35045   0.00000  Uiso   1.00
H267   H     0.07455   0.34103   0.30553   0.00000  Uiso   1.00
H268   H     0.13229   0.46018   0.28490   0.00000  Uiso   1.00
H269   H     0.03159   0.40103   0.35184   0.00000  Uiso   1.00
H270   H     0.17216   0.55368   0.43313   0.00000  Uiso   1.00
H271   H     0.29394   0.59557   0.39592   0.00000  Uiso   1.00
H272   H     0.23567   0.52831   0.48132   0.00000  Uiso   1.00
H273   H     0.36623   0.50513   0.36155   0.00000  Uiso   1.00
H274   H     0.31168   0.45895   0.28492   0.00000  Uiso   1.00
H275   H     0.30635   0.38774   0.35447   0.00000  Uiso   1.00
H276   H     0.86291   0.44419   0.85659   0.00000  Uiso   1.00
H277   H     0.94357   0.41832   0.89811   0.00000  Uiso   1.00
H278   H     0.97424   0.46321   0.80405   0.00000  Uiso   1.00
H279   H     0.36195   0.69365  -0.13883   0.00000  Uiso   1.00
H280   H     0.34297   0.59174  -0.09766   0.00000  Uiso   1.00
H281   H     0.34201   0.66497  -0.04425   0.00000  Uiso   1.00
H282   H     0.10987   0.65343   0.03396   0.00000  Uiso   1.00
H283   H     0.17793   0.61778   0.07426   0.00000  Uiso   1.00
H284   H     0.24163   0.71921   0.01514   0.00000  Uiso   1.00
H285   H     0.09378   0.53581   0.68321   0.00000  Uiso   1.00
H286   H     0.05824   0.58354   0.61074   0.00000  Uiso   1.00
H287   H    -0.03064   0.50671   0.68706   0.00000  Uiso   1.00
H288   H     0.06607   0.74302   0.62597   0.00000  Uiso   1.00
H289   H     0.01214   0.75780   0.71295   0.00000  Uiso   1.00
H290   H    -0.06093   0.65788   0.66437   0.00000  Uiso   1.00
H291   H     0.95876   0.82127   0.85312   0.00000  Uiso   1.00
H292   H     0.95564   0.73377   0.90068   0.00000  Uiso   1.00
H293   H     1.06693   0.81425   0.84623   0.00000  Uiso   1.00
H294   H     0.47767   0.20752   0.97101   0.00000  Uiso   1.00
H295   H     0.38315   0.12268   1.03317   0.00000  Uiso   1.00
H296   H     0.44870   0.10701   0.95428   0.00000  Uiso   1.00
H297   H     0.67051   0.14662   0.98405   0.00000  Uiso   1.00
H298   H     0.72807   0.25923   1.00478   0.00000  Uiso   1.00
H299   H     0.65781   0.21653   0.92990   0.00000  Uiso   1.00
H300   H     0.35981   0.06558   0.36682   0.00000  Uiso   1.00
H301   H     0.49572   0.15365   0.35503   0.00000  Uiso   1.00
H302   H     0.42288   0.13010   0.43703   0.00000  Uiso   1.00
H303   H     0.47909   0.99449   0.29117   0.00000  Uiso   1.00
H304   H     0.48933   0.93285   0.36435   0.00000  Uiso   1.00
H305   H     0.59569   1.03490   0.33069   0.00000  Uiso   1.00
H306   H     0.25734   0.16078   0.60569   0.00000  Uiso   1.00
H307   H     0.25053   0.06471   0.64493   0.00000  Uiso   1.00
H308   H     0.28890   0.10313   0.54767   0.00000  Uiso   1.00
H309   H     0.42305   0.21349   0.75341   0.00000  Uiso   1.00
H310   H     0.33677   0.22980   0.71944   0.00000  Uiso   1.00
H311   H     0.46407   0.32104   0.70512   0.00000  Uiso   1.00
H312   H     0.66144   0.13880   0.84819   0.00000  Uiso   1.00
H313   H     0.71633   0.13066   0.75725   0.00000  Uiso   1.00
H314   H     0.69216   0.05564   0.83088   0.00000  Uiso   1.00
H315   H     0.47776   0.86123   0.75063   0.00000  Uiso   1.00
H316   H     0.56759   0.89767   0.81451   0.00000  Uiso   1.00
H317   H     0.59633   0.93086   0.71103   0.00000  Uiso   1.00
H318   H     0.62187   0.28427   0.69394   0.00000  Uiso   1.00
H319   H     0.68335   0.23860   0.73231   0.00000  Uiso   1.00
H320   H     0.56525   0.21588   0.77415   0.00000  Uiso   1.00
H321   H     0.42814   0.18173   0.26138   0.00000  Uiso   1.00
H322   H     0.40916   0.26933   0.25218   0.00000  Uiso   1.00
H323   H     0.51150   0.29343   0.28371   0.00000  Uiso   1.00
H324   H     0.44231   0.35686   0.10649   0.00000  Uiso   1.00
H325   H     0.38358   0.25065   0.08277   0.00000  Uiso   1.00
H326   H     0.50242   0.33626   0.02921   0.00000  Uiso   1.00
H327   H     0.52395   0.49409   0.13900   0.00000  Uiso   1.00
H328   H     0.45401   0.52928   0.18165   0.00000  Uiso   1.00
H329   H     0.59793   0.60640   0.16297   0.00000  Uiso   1.00
H330   H     0.34593   0.47363   1.04959   0.00000  Uiso   1.00
H331   H     0.42326   0.44523   1.00069   0.00000  Uiso   1.00
H332   H     0.41713   0.52445   0.95707   0.00000  Uiso   1.00
H333   H     0.62093   0.37484   0.37881   0.00000  Uiso   1.00
H334   H     0.58276   0.26398   0.41999   0.00000  Uiso   1.00
H335   H     0.67968   0.35908   0.45004   0.00000  Uiso   1.00
H336   H     0.34555   0.28397   0.49569   0.00000  Uiso   1.00
H337   H     0.37030   0.23264   0.43332   0.00000  Uiso   1.00
H338   H     0.41342   0.34530   0.41433   0.00000  Uiso   1.00
H339   H     0.34992   0.30305   0.60869   0.00000  Uiso   1.00
H340   H     0.25885   0.29862   0.67807   0.00000  Uiso   1.00
H341   H     0.38096   0.39638   0.66093   0.00000  Uiso   1.00
H342   H     0.38030   0.52965   0.49903   0.00000  Uiso   1.00
H343   H     0.40548   0.45353   0.46173   0.00000  Uiso   1.00
H344   H     0.45632   0.50534   0.54140   0.00000  Uiso   1.00
H345   H     0.25136   0.45212   0.67284   0.00000  Uiso   1.00
H346   H     0.13541   0.36830   0.64357   0.00000  Uiso   1.00
H347   H     0.22386   0.47561   0.59340   0.00000  Uiso   1.00
H348   H     0.33101   0.56336   0.16549   0.00000  Uiso   1.00
H349   H     0.29873   0.59412   0.08053   0.00000  Uiso   1.00
H350   H     0.28812   0.63561   0.16163   0.00000  Uiso   1.00
H351   H     0.52619   0.80036   0.20341   0.00000  Uiso   1.00
H352   H     0.58910   0.74077   0.17931   0.00000  Uiso   1.00
H353   H     0.47340   0.68962   0.23228   0.00000  Uiso   1.00
H354   H     0.34467   0.70980   0.25960   0.00000  Uiso   1.00
H355   H     0.29927   0.75467   0.32714   0.00000  Uiso   1.00
H356   H     0.43104   0.80936   0.30950   0.00000  Uiso   1.00
H357   H     0.30753   0.90694   0.31261   0.00000  Uiso   1.00
H358   H     0.19407   0.81877   0.28479   0.00000  Uiso   1.00
H359   H     0.26985   0.91867   0.22900   0.00000  Uiso   1.00
H360   H     0.18649   0.91746   0.40036   0.00000  Uiso   1.00
H361   H     0.23042   1.00445   0.45802   0.00000  Uiso   1.00
H362   H     0.11397   0.89592   0.48691   0.00000  Uiso   1.00
H363   H     0.11873   0.72929   0.51385   0.00000  Uiso   1.00
H364   H     0.23511   0.74583   0.51702   0.00000  Uiso   1.00
H365   H     0.20447   0.77073   0.42493   0.00000  Uiso   1.00
H366   H     0.19546   0.88997   0.61626   0.00000  Uiso   1.00
H367   H     0.31911   0.99488   0.59423   0.00000  Uiso   1.00
H368   H     0.31072   0.89959   0.61448   0.00000  Uiso   1.00
H369   H     0.53271   0.62482   0.86046   0.00000  Uiso   1.00
H370   H     0.55857   0.63680   0.76827   0.00000  Uiso   1.00
H371   H     0.50032   0.68249   0.80858   0.00000  Uiso   1.00
H372   H     0.74379   0.69499   0.75391   0.00000  Uiso   1.00
H373   H     0.78456   0.70873   0.84156   0.00000  Uiso   1.00
H374   H     0.84022   0.80365   0.77898   0.00000  Uiso   1.00
H375   H     0.64524   0.83683   0.72571   0.00000  Uiso   1.00
H376   H     0.77939   0.89209   0.72550   0.00000  Uiso   1.00
H377   H     0.70688   0.91143   0.79333   0.00000  Uiso   1.00
H378   H     0.21311   0.80401   0.71744   0.00000  Uiso   1.00
H379   H     0.24527   0.75939   0.64004   0.00000  Uiso   1.00
H380   H     0.25932   0.72667   0.72631   0.00000  Uiso   1.00
H381   H     0.27823   0.84320   0.83966   0.00000  Uiso   1.00
H382   H     0.23306   0.75343   0.90711   0.00000  Uiso   1.00
H383   H     0.32584   0.77958   0.83264   0.00000  Uiso   1.00
H384   H     0.74249   1.00862   0.17109   0.00000  Uiso   1.00
H385   H     0.71048   0.90147   0.16358   0.00000  Uiso   1.00
H386   H     0.72724   0.95523   0.08450   0.00000  Uiso   1.00
H387   H     0.81382   0.23253   0.07440   0.00000  Uiso   1.00
H388   H     0.86364   0.29533   0.14200   0.00000  Uiso   1.00
H389   H     0.75770   0.28853   0.11382   0.00000  Uiso   1.00
H390   H     0.63845   0.17197   0.30741   0.00000  Uiso   1.00
H391   H     0.54991   0.14552   0.24849   0.00000  Uiso   1.00
H392   H     0.66335   0.25743   0.23958   0.00000  Uiso   1.00
H393   H     0.93915   0.22568   0.11933   0.00000  Uiso   1.00
H394   H     0.96695   0.28584   0.03189   0.00000  Uiso   1.00
H395   H     1.05408   0.29536   0.06020   0.00000  Uiso   1.00
H396   H     0.80098   0.06814   0.94851   0.00000  Uiso   1.00
H397   H     0.84412   0.17641   0.96530   0.00000  Uiso   1.00
H398   H     0.78088   0.09669   1.03832   0.00000  Uiso   1.00
H399   H     0.77604  -0.08128   0.46009   0.00000  Uiso   1.00
H400   H     0.86351   0.03258   0.42928   0.00000  Uiso   1.00
H401   H     0.84551  -0.04296   0.36367   0.00000  Uiso   1.00
H402   H     0.83978   0.03525   0.54508   0.00000  Uiso   1.00
H403   H     0.79091   0.02307   0.63754   0.00000  Uiso   1.00
H404   H     0.86458  -0.02326   0.61254   0.00000  Uiso   1.00
H405   H     0.61345   0.91631   0.28485   0.00000  Uiso   1.00
H406   H     0.62860   0.83820   0.33259   0.00000  Uiso   1.00
H407   H     0.73338   0.92090   0.27259   0.00000  Uiso   1.00
H408   H     0.81565   0.16542   0.47331   0.00000  Uiso   1.00
H409   H     0.71523   0.05411   0.51370   0.00000  Uiso   1.00
H410   H     0.76453   0.14107   0.56265   0.00000  Uiso   1.00
H411   H     0.59595   0.53567   0.26689   0.00000  Uiso   1.00
H412   H     0.56392   0.43413   0.32161   0.00000  Uiso   1.00
H413   H     0.50505   0.43023   0.24553   0.00000  Uiso   1.00
H414   H     0.81503   0.42128   0.00738   0.00000  Uiso   1.00
H415   H     0.70078   0.41170   0.02856   0.00000  Uiso   1.00
H416   H     0.80403   0.47635   0.08430   0.00000  Uiso   1.00
H417   H     0.76007   0.45083   0.53544   0.00000  Uiso   1.00
H418   H     0.69090   0.42458   0.62859   0.00000  Uiso   1.00
H419   H     0.80501   0.52924   0.60575   0.00000  Uiso   1.00
H420   H     0.58817   0.57651   0.61095   0.00000  Uiso   1.00
H421   H     0.70697   0.60744   0.64539   0.00000  Uiso   1.00
H422   H     0.58940   0.50178   0.67331   0.00000  Uiso   1.00
H423   H     0.59263   0.33513   0.89585   0.00000  Uiso   1.00
H424   H     0.70518   0.37044   0.92016   0.00000  Uiso   1.00
H425   H     0.69514   0.35229   0.83196   0.00000  Uiso   1.00
H426   H     0.81965   0.48767   0.74592   0.00000  Uiso   1.00
H427   H     0.85456   0.59571   0.76532   0.00000  Uiso   1.00
H428   H     0.73725   0.52340   0.73037   0.00000  Uiso   1.00
H429   H     0.59703   0.53768   0.83066   0.00000  Uiso   1.00
H430   H     0.56205   0.47371   0.91337   0.00000  Uiso   1.00
H431   H     0.52327   0.42075   0.84392   0.00000  Uiso   1.00
H432   H     0.62412   0.62017   0.93800   0.00000  Uiso   1.00
H433   H     0.64832   0.56675   0.99807   0.00000  Uiso   1.00
H434   H     0.70329   0.67832   1.00574   0.00000  Uiso   1.00
H435   H     0.94074   0.63196   0.14921   0.00000  Uiso   1.00
H436   H     0.95252   0.72744   0.18956   0.00000  Uiso   1.00
H437   H     1.00222   0.74258   0.09489   0.00000  Uiso   1.00
H438   H     0.80602   0.65987   0.27844   0.00000  Uiso   1.00
H439   H     0.82565   0.73276   0.34817   0.00000  Uiso   1.00
H440   H     0.69854   0.64087   0.34386   0.00000  Uiso   1.00
H441   H     0.93486   0.66205   0.46201   0.00000  Uiso   1.00
H442   H     0.94753   0.74078   0.39134   0.00000  Uiso   1.00
H443   H     0.98820   0.66640   0.37603   0.00000  Uiso   1.00
H444   H     0.37928   0.78053   0.44626   0.00000  Uiso   1.00
H445   H     0.37857   0.71483   0.51776   0.00000  Uiso   1.00
H446   H     0.45991   0.73960   0.43744   0.00000  Uiso   1.00
H447   H     0.45257   0.85244   0.62607   0.00000  Uiso   1.00
H448   H     0.46525   0.93582   0.56247   0.00000  Uiso   1.00
H449   H     0.56880   0.95874   0.60702   0.00000  Uiso   1.00
H450   H     0.82938   0.99092   0.85762   0.00000  Uiso   1.00
H451   H     0.86893   0.91908   0.87369   0.00000  Uiso   1.00
H452   H     0.90185   1.00919   0.92640   0.00000  Uiso   1.00
H453   H     0.60868   0.64751   0.47089   0.00000  Uiso   1.00
H454   H     0.63799   0.74002   0.41701   0.00000  Uiso   1.00
H455   H     0.52054   0.66268   0.44975   0.00000  Uiso   1.00
H456   H     0.47407   0.70949   0.65840   0.00000  Uiso   1.00
H457   H     0.48918   0.61528   0.64641   0.00000  Uiso   1.00
H458   H     0.42663   0.63929   0.59156   0.00000  Uiso   1.00
H459   H     0.69860   0.73167   0.63655   0.00000  Uiso   1.00
H460   H     0.74114   0.84303   0.59802   0.00000  Uiso   1.00
H461   H     0.76961   0.77507   0.54057   0.00000  Uiso   1.00
loop_
_geom_bond_atom_site_label_1
_geom_bond_atom_site_label_2
_geom_bond_distance
_geom_bond_site_symmetry_2
_ccdc_geom_bond_type
Si1    C52     1.906   .     S
Si1    C53     1.785   .     S
Si1    C54     1.827   1_545 S
Si1    O89     1.570   1_545 S
Si2    O57     1.587   .     S
Si2    O66     1.596   .     S
Si2    O141    1.685   1_455 S
Si2    O156    1.592   1_455 S
Si3    C55     1.876   .     S
Si3    O73     1.628   .     S
Si3    C56     1.880   1_455 S
Si3    C151    1.895   1_455 S
Si4    O57     1.636   .     S
Si4    C58     1.872   .     S
Si4    C59     1.832   .     S
Si4    O74     1.556   .     S
Si5    C60     1.888   .     S
Si5    C61     1.878   .     S
Si5    C62     1.912   1_545 S
Si5    O94     1.562   1_545 S
Si6    C63     1.850   .     S
Si6    C64     1.924   .     S
Si6    C65     1.802   1_455 S
Si6    O146    1.604   1_455 S
Si7    O66     1.582   .     S
Si7    C67     1.836   .     S
Si7    C68     1.840   .     S
Si7    C70     1.862   .     S
Si8    C78     1.838   .     S
Si8    O85     1.616   .     S
Si8    C69     1.884   1_455 S
Si8    O169    1.601   1_455 S
Si9    C71     1.916   .     S
Si9    C86     1.869   .     S
Si9    C72     1.938   1_554 S
Si9    O83     1.602   1_554 S
Si10   O73     1.583   .     S
Si10   O74     1.619   .     S
Si10   O80     1.570   .     S
Si10   O116    1.606   .     S
Si11   C75     1.868   .     S
Si11   C76     1.805   .     S
Si11   C77     1.874   1_455 S
Si11   O165    1.579   1_455 S
Si12   C79     1.826   .     S
Si12   O80     1.592   .     S
Si12   C81     1.848   .     S
Si12   C82     1.860   .     S
Si13   O83     1.656   .     S
Si13   O90     1.559   .     S
Si13   C84     1.795   1_455 S
Si13   O161    1.641   1_455 S
Si14   O85     1.621   .     S
Si14   C87     1.822   .     S
Si14   O88     1.622   .     S
Si14   O123    1.594   .     S
Si15   O88     1.538   .     S
Si15   O89     1.595   .     S
Si15   O93     1.616   1_554 S
Si15   O140    1.660   1_554 S
Si16   O90     1.569   .     S
Si16   C91     1.890   .     S
Si16   C92     1.902   .     S
Si16   C136    1.839   .     S
Si17   O93     1.623   .     S
Si17   O94     1.581   .     S
Si17   C95     1.902   1_455 S
Si17   O180    1.631   1_455 S
Si18   O96     1.571   .     S
Si18   O143    1.569   .     S
Si18   O125    1.614   1_545 S
Si18   O128    1.590   1_545 S
Si19   O96     1.619   .     S
Si19   O109    1.646   .     S
Si19   C97     1.850   1_554 S
Si19   C98     1.860   1_554 S
Si20   C99     1.895   .     S
Si20   O153    1.606   .     S
Si20   C100    1.812   1_545 S
Si20   O131    1.582   1_545 S
Si21   C101    1.841   .     S
Si21   C102    1.881   .     S
Si21   O105    1.568   .     S
Si21   O113    1.556   .     S
Si22   C103    1.884   .     S
Si22   O106    1.665   .     S
Si22   C104    1.911   1_545 S
Si22   O139    1.604   1_545 S
Si23   O105    1.591   .     S
Si23   O106    1.615   .     S
Si23   C107    1.863   .     S
Si23   O155    1.663   .     S
Si24   C108    1.898   .     S
Si24   O109    1.650   .     S
Si24   C110    1.878   .     S
Si24   O159    1.624   .     S
Si25   C111    1.907   .     S
Si25   O121    1.590   .     S
Si25   C112    1.916   1_554 S
Si25   C176    1.851   1_554 S
Si26   O113    1.565   .     S
Si26   C114    1.846   .     S
Si26   C115    1.896   .     S
Si26   O166    1.604   .     S
Si27   O116    1.575   .     S
Si27   C117    1.817   .     S
Si27   C118    1.881   .     S
Si27   C119    1.849   .     S
Si28   C120    1.854   .     S
Si28   O121    1.587   .     S
Si28   C122    1.867   .     S
Si28   O127    1.565   .     S
Si29   O123    1.595   .     S
Si29   C124    1.892   .     S
Si29   O125    1.613   .     S
Si29   C126    1.832   .     S
Si30   O127    1.589   .     S
Si30   O128    1.651   .     S
Si30   O138    1.675   1_554 S
Si30   O193    1.648   1_554 S
Si31   C129    1.893   .     S
Si31   C130    1.857   .     S
Si31   O131    1.590   .     S
Si31   C132    1.855   .     S
Si32   C133    1.836   .     S
Si32   C134    1.834   .     S
Si32   C135    1.840   .     S
Si32   O190    1.569   .     S
Si33   C137    1.870   .     S
Si33   O138    1.646   .     S
Si33   O139    1.642   .     S
Si33   O140    1.641   .     S
Si34   O141    1.642   .     S
Si34   O147    1.623   .     S
Si34   C142    1.849   1_545 S
Si34   O182    1.622   1_545 S
Si35   O143    1.578   .     S
Si35   C144    1.895   .     S
Si35   C145    1.798   .     S
Si35   O157    1.570   .     S
Si36   O147    1.624   .     S
Si36   C148    1.859   .     S
Si36   O146    1.590   1_554 S
Si36   C149    1.888   1_554 S
Si37   C150    1.825   .     S
Si37   O158    1.600   .     S
Si37   C152    1.843   1_545 S
Si37   O188    1.621   1_545 S
Si38   O153    1.581   .     S
Si38   C154    1.848   .     S
Si38   O155    1.684   .     S
Si38   O163    1.638   .     S
Si39   O156    1.613   .     S
Si39   O157    1.569   .     S
Si39   O158    1.591   .     S
Si39   O164    1.643   .     S
Si40   O159    1.568   .     S
Si40   C160    1.908   .     S
Si40   O170    1.652   .     S
Si40   O177    1.621   .     S
Si41   C162    1.844   .     S
Si41   O178    1.594   .     S
Si41   O161    1.641   1_554 S
Si41   O173    1.611   1_554 S
Si42   O163    1.646   .     S
Si42   O164    1.688   .     S
Si42   O165    1.632   .     S
Si42   O171    1.700   .     S
Si43   O166    1.603   .     S
Si43   C167    1.802   .     S
Si43   C168    1.804   .     S
Si43   O183    1.612   .     S
Si44   O169    1.595   .     S
Si44   O170    1.608   .     S
Si44   O171    1.671   .     S
Si44   O184    1.571   .     S
Si45   C172    1.829   .     S
Si45   O173    1.604   .     S
Si45   C174    1.838   .     S
Si45   C175    1.887   .     S
Si46   O177    1.662   .     S
Si46   O178    1.588   .     S
Si46   C179    1.839   .     S
Si46   O181    1.627   .     S
Si47   O181    1.650   .     S
Si47   O182    1.555   .     S
Si47   O180    1.618   1_554 S
Si47   O191    1.710   1_554 S
Si48   O183    1.612   .     S
Si48   O184    1.574   .     S
Si48   C185    1.883   .     S
Si48   C186    1.862   .     S
Si49   C187    1.912   .     S
Si49   O188    1.594   .     S
Si49   C189    1.775   .     S
Si49   O195    1.604   .     S
Si50   O190    1.629   .     S
Si50   O191    1.661   .     S
Si50   C192    1.827   .     S
Si50   O193    1.656   .     S
Si51   C194    1.903   .     S
Si51   O195    1.551   .     S
Si51   C196    1.830   .     S
Si51   C197    1.890   .     S
C52    H198    1.133   .     S
C52    H199    1.115   .     S
C52    H200    1.098   .     S
C53    H201    1.126   .     S
C53    H202    1.091   .     S
C53    H203    1.127   .     S
C54    H204    1.159   .     S
C54    H205    1.155   .     S
C54    H206    1.094   .     S
C54    Si1     1.827   1_565 S
C55    H207    1.061   .     S
C55    H208    1.131   .     S
C55    H209    1.034   .     S
C56    H210    1.135   .     S
C56    H211    1.065   .     S
C56    H212    1.103   .     S
C56    Si3     1.880   1_655 S
C58    H213    1.128   .     S
C58    H214    1.080   .     S
C58    H215    1.112   .     S
C59    H216    1.107   .     S
C59    H217    1.091   .     S
C59    H218    1.091   .     S
C60    H219    1.138   .     S
C60    H220    1.116   .     S
C60    H221    1.109   .     S
C61    H222    1.113   .     S
C61    H223    1.078   .     S
C61    H224    1.132   .     S
C62    H225    1.116   .     S
C62    H226    1.054   .     S
C62    H227    1.137   .     S
C62    Si5     1.912   1_565 S
C63    H228    1.148   .     S
C63    H229    1.114   .     S
C63    H230    1.117   .     S
C64    H231    1.122   .     S
C64    H232    1.120   .     S
C64    H233    1.094   .     S
C65    H234    1.084   .     S
C65    H235    1.142   .     S
C65    H236    1.111   .     S
C65    Si6     1.802   1_655 S
C67    H237    1.086   .     S
C67    H238    1.158   .     S
C67    H239    1.072   .     S
C68    H240    1.096   .     S
C68    H241    1.104   .     S
C68    H242    1.053   .     S
C69    H243    1.113   .     S
C69    H244    1.115   .     S
C69    H245    1.149   .     S
C69    Si8     1.884   1_655 S
C70    H246    1.124   .     S
C70    H247    1.073   .     S
C70    H248    1.110   .     S
C71    H249    1.106   .     S
C71    H250    1.110   .     S
C71    H251    1.095   .     S
C72    H252    1.151   .     S
C72    H253    1.026   .     S
C72    H254    1.120   .     S
C72    Si9     1.938   1_556 S
C75    H255    1.095   .     S
C75    H256    1.137   .     S
C75    H257    1.070   .     S
C76    H258    1.127   .     S
C76    H259    1.087   .     S
C76    H260    1.115   .     S
C77    H261    1.123   .     S
C77    H262    1.095   .     S
C77    H263    1.202   .     S
C77    Si11    1.874   1_655 S
C78    H264    1.055   .     S
C78    H265    1.114   .     S
C78    H266    1.062   .     S
C79    H267    1.092   .     S
C79    H268    1.093   .     S
C79    H269    1.084   .     S
C81    H270    1.092   .     S
C81    H271    1.096   .     S
C81    H272    1.089   .     S
C82    H273    1.105   .     S
C82    H274    1.068   .     S
C82    H275    1.148   .     S
O83    Si9     1.602   1_556 S
C84    H276    1.134   .     S
C84    H277    1.137   .     S
C84    H278    1.091   .     S
C84    Si13    1.795   1_655 S
C86    H279    1.129   .     S
C86    H280    1.049   .     S
C86    H281    1.099   .     S
C87    H282    1.064   .     S
C87    H283    1.078   .     S
C87    H284    1.068   .     S
O89    Si1     1.570   1_565 S
C91    H285    1.101   .     S
C91    H286    1.152   .     S
C91    H287    1.096   .     S
C92    H288    1.088   .     S
C92    H289    1.157   .     S
C92    H290    1.163   .     S
O93    Si15    1.616   1_556 S
O94    Si5     1.562   1_565 S
C95    H291    1.110   .     S
C95    H292    1.109   .     S
C95    H293    1.129   .     S
C95    Si17    1.902   1_655 S
C97    H294    1.050   .     S
C97    H295    1.107   .     S
C97    H296    1.087   .     S
C97    Si19    1.850   1_556 S
C98    H297    1.149   .     S
C98    H298    1.109   .     S
C98    H299    1.112   .     S
C98    Si19    1.860   1_556 S
C99    H300    1.138   .     S
C99    H301    1.079   .     S
C99    H302    1.038   .     S
C100   H303    1.121   .     S
C100   H304    1.088   .     S
C100   H305    1.110   .     S
C100   Si20    1.812   1_565 S
C101   H306    1.111   .     S
C101   H307    1.106   .     S
C101   H308    1.086   .     S
C102   H309    1.116   .     S
C102   H310    1.143   .     S
C102   H311    1.100   .     S
C103   H312    1.080   .     S
C103   H313    1.111   .     S
C103   H314    1.176   .     S
C104   H315    1.081   .     S
C104   H316    1.140   .     S
C104   H317    1.097   .     S
C104   Si22    1.911   1_565 S
C107   H318    1.052   .     S
C107   H319    1.160   .     S
C107   H320    1.111   .     S
C108   H321    1.128   .     S
C108   H322    1.080   .     S
C108   H323    1.106   .     S
C110   H324    1.046   .     S
C110   H325    1.128   .     S
C110   H326    1.119   .     S
C111   H327    1.074   .     S
C111   H328    1.133   .     S
C111   H329    1.129   .     S
C112   H330    1.091   .     S
C112   H331    1.087   .     S
C112   H332    1.102   .     S
C112   Si25    1.916   1_556 S
C114   H333    1.125   .     S
C114   H334    1.115   .     S
C114   H335    1.093   .     S
C115   H336    1.083   .     S
C115   H337    1.106   .     S
C115   H338    1.035   .     S
C117   H339    1.127   .     S
C117   H340    1.106   .     S
C117   H341    1.077   .     S
C118   H342    1.062   .     S
C118   H343    1.079   .     S
C118   H344    1.142   .     S
C119   H345    1.103   .     S
C119   H346    1.145   .     S
C119   H347    1.086   .     S
C120   H348    1.115   .     S
C120   H349    1.107   .     S
C120   H350    1.112   .     S
C122   H351    1.105   .     S
C122   H352    1.124   .     S
C122   H353    1.105   .     S
C124   H354    1.160   .     S
C124   H355    1.084   .     S
C124   H356    1.114   .     S
O125   Si18    1.614   1_565 S
C126   H357    1.133   .     S
C126   H358    1.089   .     S
C126   H359    1.089   .     S
O128   Si18    1.590   1_565 S
C129   H360    1.115   .     S
C129   H361    1.101   .     S
C129   H362    1.088   .     S
C130   H363    1.102   .     S
C130   H364    1.173   .     S
C130   H365    1.169   .     S
O131   Si20    1.582   1_565 S
C132   H366    1.037   .     S
C132   H367    1.096   .     S
C132   H368    1.081   .     S
C133   H369    1.117   .     S
C133   H370    1.058   .     S
C133   H371    1.085   .     S
C134   H372    1.112   .     S
C134   H373    1.110   .     S
C134   H374    1.096   .     S
C135   H375    1.184   .     S
C135   H376    1.106   .     S
C135   H377    1.094   .     S
C136   H378    1.132   .     S
C136   H379    1.133   .     S
C136   H380    1.117   .     S
C137   H381    1.078   .     S
C137   H382    1.105   .     S
C137   H383    1.042   .     S
O138   Si30    1.675   1_556 S
O139   Si22    1.604   1_565 S
O140   Si15    1.660   1_556 S
O141   Si2     1.685   1_655 S
C142   H384    1.114   .     S
C142   H385    1.073   .     S
C142   H386    1.080   .     S
C142   Si34    1.849   1_565 S
C144   H387    1.078   .     S
C144   H388    1.087   .     S
C144   H389    1.117   .     S
C145   H390    1.103   .     S
C145   H391    1.113   .     S
C145   H392    1.125   .     S
O146   Si6     1.604   1_655 S
O146   Si36    1.590   1_556 S
C148   H393    1.126   .     S
C148   H394    1.061   .     S
C148   H395    1.044   .     S
C149   H396    1.090   .     S
C149   H397    1.127   .     S
C149   H398    1.060   .     S
C149   Si36    1.888   1_556 S
C150   H399    1.083   .     S
C150   H400    1.064   .     S
C150   H401    1.142   .     S
C151   H402    1.049   .     S
C151   H403    1.109   .     S
C151   H404    1.151   .     S
C151   Si3     1.895   1_655 S
C152   H405    1.115   .     S
C152   H406    1.137   .     S
C152   H407    1.117   .     S
C152   Si37    1.843   1_565 S
C154   H408    1.098   .     S
C154   H409    1.125   .     S
C154   H410    1.069   .     S
O156   Si2     1.592   1_655 S
C160   H411    1.079   .     S
C160   H412    1.123   .     S
C160   H413    1.130   .     S
O161   Si13    1.641   1_655 S
O161   Si41    1.641   1_556 S
C162   H414    1.081   .     S
C162   H415    1.122   .     S
C162   H416    1.166   .     S
O165   Si11    1.579   1_655 S
C167   H417    1.136   .     S
C167   H418    1.093   .     S
C167   H419    1.129   .     S
C168   H420    1.139   .     S
C168   H421    1.134   .     S
C168   H422    1.102   .     S
O169   Si8     1.601   1_655 S
C172   H423    1.102   .     S
C172   H424    1.043   .     S
C172   H425    1.087   .     S
O173   Si41    1.611   1_556 S
C174   H426    1.122   .     S
C174   H427    1.085   .     S
C174   H428    1.142   .     S
C175   H429    1.129   .     S
C175   H430    1.046   .     S
C175   H431    1.056   .     S
C176   H432    1.066   .     S
C176   H433    1.044   .     S
C176   H434    1.076   .     S
C176   Si25    1.851   1_556 S
C179   H435    1.110   .     S
C179   H436    1.187   .     S
C179   H437    1.104   .     S
O180   Si17    1.631   1_655 S
O180   Si47    1.618   1_556 S
O182   Si34    1.622   1_565 S
C185   H438    1.139   .     S
C185   H439    1.130   .     S
C185   H440    1.114   .     S
C186   H441    1.034   .     S
C186   H442    1.135   .     S
C186   H443    1.103   .     S
C187   H444    1.115   .     S
C187   H445    1.103   .     S
C187   H446    1.094   .     S
O188   Si37    1.621   1_565 S
C189   H447    1.123   .     S
C189   H448    1.083   .     S
C189   H449    1.153   .     S
O191   Si47    1.710   1_556 S
C192   H450    1.102   .     S
C192   H451    1.136   .     S
C192   H452    1.126   .     S
O193   Si30    1.648   1_556 S
C194   H453    1.077   .     S
C194   H454    1.055   .     S
C194   H455    1.044   .     S
C196   H456    1.081   .     S
C196   H457    1.118   .     S
C196   H458    1.089   .     S
C197   H459    1.153   .     S
C197   H460    1.102   .     S
C197   H461    1.123   .     S
