data_333-9-11-16-15-30-12
_audit_creation_date              2025-03-07
_audit_creation_method            'Materials Studio'
_symmetry_space_group_name_H-M    'P1'
_symmetry_Int_Tables_number       1
_symmetry_cell_setting            triclinic
loop_
_symmetry_equiv_pos_as_xyz
  x,y,z
_cell_length_a                    20.1231
_cell_length_b                    15.6991
_cell_length_c                    19.2010
_cell_angle_alpha                 85.4173
_cell_angle_beta                  87.2971
_cell_angle_gamma                 124.9023
loop_
_atom_site_label
_atom_site_type_symbol
_atom_site_fract_x
_atom_site_fract_y
_atom_site_fract_z
_atom_site_U_iso_or_equiv
_atom_site_adp_type
_atom_site_occupancy
Si1    Si    0.20050   0.04569   0.07742   0.00000  Uiso   1.00
Si2    Si    0.18416   0.12588  -0.06403   0.00000  Uiso   1.00
Si3    Si    0.18996  -0.02558   0.41543   0.00000  Uiso   1.00
Si4    Si    0.05774   0.11495   0.53303   0.00000  Uiso   1.00
Si5    Si    0.21284   0.17533   0.34651   0.00000  Uiso   1.00
Si6    Si    0.10821  -0.00708   0.62605   0.00000  Uiso   1.00
Si7    Si    0.29232   0.46591   0.09385   0.00000  Uiso   1.00
Si8    Si    0.19169   0.54347   0.04908   0.00000  Uiso   1.00
Si9    Si    0.18966   0.32004   0.43529   0.00000  Uiso   1.00
Si10   Si    0.00370   0.53786   0.48068   0.00000  Uiso   1.00
Si11   Si    0.18802   0.48903   0.34620   0.00000  Uiso   1.00
Si12   Si    0.12964   0.52657   0.76440   0.00000  Uiso   1.00
Si13   Si    0.20374   0.71121   0.12737   0.00000  Uiso   1.00
Si14   Si    0.09337   0.87435   0.20609   0.00000  Uiso   1.00
Si15   Si    0.22760   0.88936   0.02810   0.00000  Uiso   1.00
Si16   Si    0.17138   0.65824   0.40017   0.00000  Uiso   1.00
Si17   Si    0.21187   0.85657   0.30149   0.00000  Uiso   1.00
Si18   Si    0.48967   0.03712   0.10390   0.00000  Uiso   1.00
Si19   Si    0.36441   0.22655   0.11726   0.00000  Uiso   1.00
Si20   Si    0.52297   0.19806  -0.01793   0.00000  Uiso   1.00
Si21   Si    0.44823  -0.01454   0.40019   0.00000  Uiso   1.00
Si22   Si    0.26978   0.05858   0.54600   0.00000  Uiso   1.00
Si23   Si    0.35068   0.03333   0.66339   0.00000  Uiso   1.00
Si24   Si    0.52309   0.37803   0.01598   0.00000  Uiso   1.00
Si25   Si    0.32119   0.48541   0.50174   0.00000  Uiso   1.00
Si26   Si    0.56724   0.58879   0.40074   0.00000  Uiso   1.00
Si27   Si    0.16486   0.46570   0.90387   0.00000  Uiso   1.00
Si28   Si    0.37595   0.45057   0.63849   0.00000  Uiso   1.00
Si29   Si    0.61971   0.73401   0.15752   0.00000  Uiso   1.00
Si30   Si    0.34633   0.85636   0.21557   0.00000  Uiso   1.00
Si31   Si    0.46079   0.85674   0.03110   0.00000  Uiso   1.00
Si32   Si    0.47406   0.68952   0.40999   0.00000  Uiso   1.00
Si33   Si    0.29997   0.80301   0.48437   0.00000  Uiso   1.00
Si34   Si    0.47111   0.85384   0.30632   0.00000  Uiso   1.00
Si35   Si    0.34637   0.86251   0.94059   0.00000  Uiso   1.00
Si36   Si    0.64265   0.20976   0.16842   0.00000  Uiso   1.00
Si37   Si    0.83633   0.21668  -0.02589   0.00000  Uiso   1.00
Si38   Si    0.96419  -0.00085   0.41654   0.00000  Uiso   1.00
Si39   Si    0.90901   0.13717   0.37331   0.00000  Uiso   1.00
Si40   Si    0.75633  -0.11038   0.69899   0.00000  Uiso   1.00
Si41   Si    0.93682   0.08829   0.65500   0.00000  Uiso   1.00
Si42   Si    0.81160   0.33477   0.08171   0.00000  Uiso   1.00
Si43   Si    0.92349   0.56515   0.01694   0.00000  Uiso   1.00
Si44   Si    0.68567   0.37978   0.50243   0.00000  Uiso   1.00
Si45   Si    0.85059   0.56115   0.88054   0.00000  Uiso   1.00
Si46   Si    0.95029   0.70971   0.12574   0.00000  Uiso   1.00
Si47   Si    0.62044   0.90318   0.22242   0.00000  Uiso   1.00
Si48   Si    0.91496   0.84394   0.02208   0.00000  Uiso   1.00
Si49   Si    0.72402   0.42715   0.65284   0.00000  Uiso   1.00
Si50   Si    0.97064   0.87460   0.30878   0.00000  Uiso   1.00
Si51   Si    0.62759   0.93498   0.71753   0.00000  Uiso   1.00
O52    O     0.15768   0.06247   0.01174   0.00000  Uiso   1.00
C53    C     0.10101   0.12026   0.89604   0.00000  Uiso   1.00
C54    C     0.21717   0.07163   0.87269   0.00000  Uiso   1.00
C55    C     0.09226   0.85917   0.45527   0.00000  Uiso   1.00
C56    C     0.17390   0.14718   0.25860   0.00000  Uiso   1.00
O57    O     0.17417   0.06163   0.39305   0.00000  Uiso   1.00
O58    O     0.10022   0.08116   0.58660   0.00000  Uiso   1.00
C59    C     0.01037  -0.14274   0.62870   0.00000  Uiso   1.00
C60    C     0.20538   0.32615   0.10223   0.00000  Uiso   1.00
C61    C     0.26616   0.26278  -0.05955   0.00000  Uiso   1.00
C62    C     0.37327   0.49475   0.02673   0.00000  Uiso   1.00
C63    C     0.33537   0.49322   0.18046   0.00000  Uiso   1.00
O64    O     0.26410   0.53945   0.07265   0.00000  Uiso   1.00
C65    C     0.08841   0.42821   1.09548   0.00000  Uiso   1.00
O66    O     0.12153   0.23446   0.49977   0.00000  Uiso   1.00
O67    O     0.18569   0.24774   0.37875   0.00000  Uiso   1.00
C68    C    -0.01697   0.43181   0.54715   0.00000  Uiso   1.00
C69    C     0.96141   0.60234   0.51701   0.00000  Uiso   1.00
C70    C     0.94969   0.48462   0.39753   0.00000  Uiso   1.00
C71    C     0.14358   0.42088   0.26953   0.00000  Uiso   1.00
O72    O     0.16540   0.39618   0.40597   0.00000  Uiso   1.00
C73    C     0.30149   0.57890   0.32296   0.00000  Uiso   1.00
C74    C     0.09106   0.40658   0.72350   0.00000  Uiso   1.00
C75    C     0.12408   0.01758   0.72178   0.00000  Uiso   1.00
C76    C     0.23749   0.62892   0.72384   0.00000  Uiso   1.00
C77    C     0.07541   0.59206   0.75224   0.00000  Uiso   1.00
C78    C     0.10679   0.62136   0.18675   0.00000  Uiso   1.00
O79    O     0.21240   0.65196   0.06590   0.00000  Uiso   1.00
O80    O     0.13585   0.97734   0.14708   0.00000  Uiso   1.00
O81    O     0.20307   0.80703   0.09363   0.00000  Uiso   1.00
O82    O     0.24400   0.99130   0.05481   0.00000  Uiso   1.00
C83    C     0.14323   0.82948   0.97332   0.00000  Uiso   1.00
O84    O     0.09662   0.61594   0.45964   0.00000  Uiso   1.00
O85    O     0.15915   0.55846   0.37145   0.00000  Uiso   1.00
O86    O     0.15961   0.85884   0.23798   0.00000  Uiso   1.00
O87    O     0.17076   0.73927   0.34436   0.00000  Uiso   1.00
O88    O     0.22371   0.94259   0.35226   0.00000  Uiso   1.00
O89    O     0.27026   0.15989   0.09845   0.00000  Uiso   1.00
C90    C     0.37370   0.12653   0.16670   0.00000  Uiso   1.00
C91    C     0.38561   0.32176   0.17450   0.00000  Uiso   1.00
C92    C     0.32889   0.24805   0.33796   0.00000  Uiso   1.00
O93    O     0.48176   0.11604   0.05186   0.00000  Uiso   1.00
C94    C     0.44951   0.17295   0.91832   0.00000  Uiso   1.00
C95    C     0.60967   0.20179   0.93993   0.00000  Uiso   1.00
C96    C     0.44877   0.07102   0.32839   0.00000  Uiso   1.00
C97    C     0.51872   0.06090   0.46326   0.00000  Uiso   1.00
O98    O     0.25336   0.01528   0.47293   0.00000  Uiso   1.00
C99    C     0.30197   0.19614   0.53822   0.00000  Uiso   1.00
O100   O     0.18390  -0.00452   0.59389   0.00000  Uiso   1.00
O101   O     0.33033   0.04711   0.58704   0.00000  Uiso   1.00
C102   C     0.42512  -0.00461   0.66180   0.00000  Uiso   1.00
C103   C     0.25708  -0.07311   0.72361   0.00000  Uiso   1.00
C104   C     0.39692   0.15760   0.70063   0.00000  Uiso   1.00
O105   O     0.43181   0.29106   0.05008   0.00000  Uiso   1.00
O106   O     0.56173   0.31486  -0.00186   0.00000  Uiso   1.00
C107   C     0.52622   0.45688  -0.06263   0.00000  Uiso   1.00
C108   C     0.58737   0.46757   0.07966   0.00000  Uiso   1.00
O109   O     0.27739   0.38980   0.45834   0.00000  Uiso   1.00
C110   C     0.24684   0.50477   0.54491   0.00000  Uiso   1.00
C111   C     0.51280   0.45419   0.37425   0.00000  Uiso   1.00
C112   C     0.57906   0.58379   0.49645   0.00000  Uiso   1.00
C113   C     0.67280   0.67330   0.35281   0.00000  Uiso   1.00
O114   O     0.12493   0.49590   0.84592   0.00000  Uiso   1.00
C115   C     0.08645   0.32627   0.93912   0.00000  Uiso   1.00
C116   C     0.25735   0.48392   0.85964   0.00000  Uiso   1.00
O117   O     0.18632   0.53197   0.96745   0.00000  Uiso   1.00
O118   O     0.36998   0.46980   0.55794   0.00000  Uiso   1.00
C119   C     0.27434   0.34254   0.68572   0.00000  Uiso   1.00
C120   C     0.41501   0.57513   0.67654   0.00000  Uiso   1.00
C121   C     0.44444   0.40764   0.65680   0.00000  Uiso   1.00
C122   C     0.55812   0.59740   0.19657   0.00000  Uiso   1.00
C123   C     0.73234   0.80621   0.16742   0.00000  Uiso   1.00
O124   O     0.28001   0.76337   0.17264   0.00000  Uiso   1.00
O125   O     0.40816   0.95930   0.15787   0.00000  Uiso   1.00
O126   O     0.29733   0.88837   0.26524   0.00000  Uiso   1.00
C127   C     0.61555   0.74597   0.05977   0.00000  Uiso   1.00
C128   C     0.42691   0.75155   0.10442   0.00000  Uiso   1.00
O129   O     0.49973   0.96558   0.05850   0.00000  Uiso   1.00
C130   C     0.53050   0.86173   0.96443   0.00000  Uiso   1.00
O131   O     0.38464   0.59117   0.44618   0.00000  Uiso   1.00
O132   O     0.51925   0.64191   0.38065   0.00000  Uiso   1.00
C133   C     0.53760   0.77777   0.47322   0.00000  Uiso   1.00
O134   O     0.25204   0.71827   0.43614   0.00000  Uiso   1.00
C135   C     0.36637   0.77897   0.53210   0.00000  Uiso   1.00
O136   O     0.35873   0.91082   0.43885   0.00000  Uiso   1.00
C137   C     0.23164   0.79628   0.55658   0.00000  Uiso   1.00
O138   O     0.39383   0.82411   0.26486   0.00000  Uiso   1.00
O139   O     0.46299   0.75322   0.34408   0.00000  Uiso   1.00
O140   O     0.47969   0.92160   0.36636   0.00000  Uiso   1.00
C141   C     0.26552   0.75066   0.89879   0.00000  Uiso   1.00
O142   O     0.38099   0.82307   0.99519   0.00000  Uiso   1.00
C143   C     0.43121   0.95854   0.86892   0.00000  Uiso   1.00
O144   O     0.30812   0.91298   0.98204   0.00000  Uiso   1.00
O145   O     0.56506   0.10296   0.15119   0.00000  Uiso   1.00
C146   C     0.60981   0.29987   0.18207   0.00000  Uiso   1.00
C147   C     0.88581   0.17728   1.03275   0.00000  Uiso   1.00
C148   C     0.73560   0.10215  -0.04732   0.00000  Uiso   1.00
C149   C     0.90129   0.26579   0.88783   0.00000  Uiso   1.00
O150   O     1.02645   0.04200   0.47250   0.00000  Uiso   1.00
C151   C     0.86784   0.88842   0.47239   0.00000  Uiso   1.00
C152   C     0.90946   0.17297   0.27984   0.00000  Uiso   1.00
C153   C     0.67150   0.18621   0.25766   0.00000  Uiso   1.00
C154   C     0.80253   0.04453   0.42141   0.00000  Uiso   1.00
O155   O     0.94940   0.07755   0.37838   0.00000  Uiso   1.00
C156   C     0.95595   0.24760   0.42528   0.00000  Uiso   1.00
C157   C     0.70276  -0.20520   0.63504   0.00000  Uiso   1.00
C158   C     0.75024   0.83180   0.79225   0.00000  Uiso   1.00
O159   O     0.98337   0.10576   0.58094   0.00000  Uiso   1.00
C160   C     0.91425   0.18520   0.65555   0.00000  Uiso   1.00
O161   O     0.84708  -0.02922   0.66310   0.00000  Uiso   1.00
C162   C     0.99217   0.08322   0.72661   0.00000  Uiso   1.00
O163   O     0.71481   0.27072   0.10686   0.00000  Uiso   1.00
O164   O     0.82204   0.29214   0.01245   0.00000  Uiso   1.00
C165   C     0.87041   0.33415   0.15392   0.00000  Uiso   1.00
C166   C     1.00261   0.54941   0.98136   0.00000  Uiso   1.00
O167   O     0.85032   0.45677   0.06024   0.00000  Uiso   1.00
C168   C     0.72488   0.29559   0.49747   0.00000  Uiso   1.00
C169   C     0.72639   0.47253   0.41734   0.00000  Uiso   1.00
C170   C     0.57080   0.29318   0.51488   0.00000  Uiso   1.00
C171   C     0.83548   0.43968   0.85763   0.00000  Uiso   1.00
O172   O     0.88453   0.59239   0.95594   0.00000  Uiso   1.00
C173   C     0.92908   0.66989   0.81210   0.00000  Uiso   1.00
C174   C     0.75407   0.55119   0.87953   0.00000  Uiso   1.00
C175   C     0.85389   0.61779   0.18563   0.00000  Uiso   1.00
O176   O     0.96555   0.65211   0.06761   0.00000  Uiso   1.00
O177   O     1.02266   0.76782   0.17646   0.00000  Uiso   1.00
O178   O     0.58945   0.79357   0.19441   0.00000  Uiso   1.00
C179   C     0.67943   1.00483   0.14783   0.00000  Uiso   1.00
O180   O     0.54863   0.91115   0.25188   0.00000  Uiso   1.00
C181   C     0.97028   0.85533   0.93820   0.00000  Uiso   1.00
O182   O     0.93908   0.79706   0.08385   0.00000  Uiso   1.00
C183   C     0.92699   0.96701   0.03911   0.00000  Uiso   1.00
C184   C     0.80572   0.73955   1.01117   0.00000  Uiso   1.00
C185   C     0.62632   0.35333   0.70999   0.00000  Uiso   1.00
O186   O     0.70613   0.43177   0.57208   0.00000  Uiso   1.00
C187   C     0.79320   0.38370   0.67093   0.00000  Uiso   1.00
O188   O     1.05123   0.89262   0.26957   0.00000  Uiso   1.00
C189   C     0.69209   0.93859   0.29127   0.00000  Uiso   1.00
C190   C     0.92330   0.90090   0.23871   0.00000  Uiso   1.00
C191   C     0.77933   0.56632   0.67058   0.00000  Uiso   1.00
C192   C     0.89737   0.73411   0.35258   0.00000  Uiso   1.00
O193   O     0.99555   0.95726   0.36222   0.00000  Uiso   1.00
C194   C     0.55718   0.81487   0.78250   0.00000  Uiso   1.00
C195   C     0.58152   0.91630   0.63282   0.00000  Uiso   1.00
C196   C     0.63448   1.04477   0.75514   0.00000  Uiso   1.00
O197   O     0.71268   0.94709   0.70459   0.00000  Uiso   1.00
H198   H     0.12953   0.19682   0.85848   0.00000  Uiso   1.00
H199   H     0.05844   0.12249   0.93315   0.00000  Uiso   1.00
H200   H     0.06951   0.05391   0.86434   0.00000  Uiso   1.00
H201   H     0.24206   0.12557   0.82366   0.00000  Uiso   1.00
H202   H     0.16002  -0.00651   0.86623   0.00000  Uiso   1.00
H203   H     0.26657   0.06808   0.89277   0.00000  Uiso   1.00
H204   H     0.06607   0.81731   0.41298   0.00000  Uiso   1.00
H205   H     0.06037   0.89273   0.46972   0.00000  Uiso   1.00
H206   H     0.09720   0.81614   0.49966   0.00000  Uiso   1.00
H207   H     0.18796   0.22538   0.23302   0.00000  Uiso   1.00
H208   H     0.10819   0.08676   0.25160   0.00000  Uiso   1.00
H209   H     0.21176   0.12984   0.23111   0.00000  Uiso   1.00
H210   H    -0.01737  -0.15143   0.58182   0.00000  Uiso   1.00
H211   H    -0.03556  -0.16078   0.67374   0.00000  Uiso   1.00
H212   H     0.02980  -0.19562   0.63224   0.00000  Uiso   1.00
H213   H     0.18270   0.31986   0.05246   0.00000  Uiso   1.00
H214   H     0.16191   0.31255   0.14627   0.00000  Uiso   1.00
H215   H     0.22830   0.27880   0.10733   0.00000  Uiso   1.00
H216   H     0.29558   0.28788  -0.11309   0.00000  Uiso   1.00
H217   H     0.30727   0.26556  -0.02148   0.00000  Uiso   1.00
H218   H     0.22808   0.28901  -0.04718   0.00000  Uiso   1.00
H219   H     0.41064   0.47033   0.04040   0.00000  Uiso   1.00
H220   H     0.41303   0.58082   0.00232   0.00000  Uiso   1.00
H221   H     0.33897   0.44658  -0.01210   0.00000  Uiso   1.00
H222   H     0.39076   0.50088   0.17988   0.00000  Uiso   1.00
H223   H     0.29410   0.43251   0.22388   0.00000  Uiso   1.00
H224   H     0.35239   0.57078   0.19390   0.00000  Uiso   1.00
H225   H     0.08855   0.45201   1.14704   0.00000  Uiso   1.00
H226   H     0.07767   0.34655   1.10475   0.00000  Uiso   1.00
H227   H     0.03607   0.41456   1.06764   0.00000  Uiso   1.00
H228   H    -0.07959   0.36065   0.53935   0.00000  Uiso   1.00
H229   H    -0.01362   0.45641   0.60027   0.00000  Uiso   1.00
H230   H     0.02756   0.41159   0.54144   0.00000  Uiso   1.00
H231   H     1.00145   0.65423   0.55345   0.00000  Uiso   1.00
H232   H     0.89817   0.54385   0.54649   0.00000  Uiso   1.00
H233   H     0.96560   0.65972   0.47575   0.00000  Uiso   1.00
H234   H     0.95635   0.55528   0.36536   0.00000  Uiso   1.00
H235   H     0.88492   0.43125   0.41374   0.00000  Uiso   1.00
H236   H     0.96982   0.44618   0.36439   0.00000  Uiso   1.00
H237   H     0.14137   0.34751   0.27411   0.00000  Uiso   1.00
H238   H     0.17798   0.47620   0.21967   0.00000  Uiso   1.00
H239   H     0.07473   0.39096   0.27083   0.00000  Uiso   1.00
H240   H     0.31659   0.62416   0.27131   0.00000  Uiso   1.00
H241   H     0.33530   0.53919   0.32118   0.00000  Uiso   1.00
H242   H     0.31930   0.63897   0.35808   0.00000  Uiso   1.00
H243   H     0.03681   0.34284   0.75715   0.00000  Uiso   1.00
H244   H     0.13984   0.39606   0.71994   0.00000  Uiso   1.00
H245   H     0.07374   0.40650   0.67018   0.00000  Uiso   1.00
H246   H     0.15888   0.10533   0.72526   0.00000  Uiso   1.00
H247   H     0.16927   0.00440   0.74339   0.00000  Uiso   1.00
H248   H     0.06685  -0.02408   0.75943   0.00000  Uiso   1.00
H249   H     0.26456   0.69421   0.75301   0.00000  Uiso   1.00
H250   H     0.23521   0.65023   0.66718   0.00000  Uiso   1.00
H251   H     0.27389   0.59597   0.72109   0.00000  Uiso   1.00
H252   H     0.08756   0.63300   0.69823   0.00000  Uiso   1.00
H253   H     0.08990   0.65279   0.79029   0.00000  Uiso   1.00
H254   H     0.01044   0.52735   0.76997   0.00000  Uiso   1.00
H255   H     0.09669   0.66908   0.22094   0.00000  Uiso   1.00
H256   H     0.11321   0.57389   0.22777   0.00000  Uiso   1.00
H257   H     0.05229   0.57336   0.15727   0.00000  Uiso   1.00
H258   H     0.09448   0.84249   0.99572   0.00000  Uiso   1.00
H259   H     0.10962   0.74549   0.98102   0.00000  Uiso   1.00
H260   H     0.16701   0.86344   0.91637   0.00000  Uiso   1.00
H261   H     0.35662   0.06685   0.13036   0.00000  Uiso   1.00
H262   H     0.33360   0.09040   0.21529   0.00000  Uiso   1.00
H263   H     0.43613   0.15658   0.18057   0.00000  Uiso   1.00
H264   H     0.42732   0.40373   0.14583   0.00000  Uiso   1.00
H265   H     0.42426   0.31760   0.21282   0.00000  Uiso   1.00
H266   H     0.33011   0.30668   0.19818   0.00000  Uiso   1.00
H267   H     0.34306   0.24269   0.39047   0.00000  Uiso   1.00
H268   H     0.36417   0.33376   0.32242   0.00000  Uiso   1.00
H269   H     0.34557   0.20290   0.31191   0.00000  Uiso   1.00
H270   H     0.47281   0.15790   0.87241   0.00000  Uiso   1.00
H271   H     0.44045   0.22912   0.89820   0.00000  Uiso   1.00
H272   H     0.38958   0.10690   0.94327   0.00000  Uiso   1.00
H273   H     0.66566   0.25633   0.96116   0.00000  Uiso   1.00
H274   H     0.62073   0.23348   0.88246   0.00000  Uiso   1.00
H275   H     0.59734   0.12249   0.94629   0.00000  Uiso   1.00
H276   H     0.45743   0.05386   0.27742   0.00000  Uiso   1.00
H277   H     0.49676   0.15130   0.33605   0.00000  Uiso   1.00
H278   H     0.39364   0.07060   0.33356   0.00000  Uiso   1.00
H279   H     0.49267   0.03961   0.52106   0.00000  Uiso   1.00
H280   H     0.55238   0.14121   0.44224   0.00000  Uiso   1.00
H281   H     0.56767   0.05099   0.45997   0.00000  Uiso   1.00
H282   H     0.36317   0.24826   0.51306   0.00000  Uiso   1.00
H283   H     0.30259   0.21781   0.58961   0.00000  Uiso   1.00
H284   H     0.25941   0.20229   0.50803   0.00000  Uiso   1.00
H285   H     0.48938   0.07220   0.64645   0.00000  Uiso   1.00
H286   H     0.41227  -0.05551   0.62181   0.00000  Uiso   1.00
H287   H     0.42555  -0.04552   0.71411   0.00000  Uiso   1.00
H288   H     0.25341  -0.14507   0.72387   0.00000  Uiso   1.00
H289   H     0.20034  -0.08915   0.70378   0.00000  Uiso   1.00
H290   H     0.26180  -0.05281   0.77671   0.00000  Uiso   1.00
H291   H     0.35020   0.17211   0.70371   0.00000  Uiso   1.00
H292   H     0.44944   0.22142   0.65945   0.00000  Uiso   1.00
H293   H     0.42752   0.15919   0.74742   0.00000  Uiso   1.00
H294   H     0.46535   0.40558  -0.08749   0.00000  Uiso   1.00
H295   H     0.57550   0.47917  -0.10557   0.00000  Uiso   1.00
H296   H     0.52468   0.52381  -0.04489   0.00000  Uiso   1.00
H297   H     0.58408   0.53516   0.06636   0.00000  Uiso   1.00
H298   H     0.64631   0.48190   0.06923   0.00000  Uiso   1.00
H299   H     0.56554   0.43992   0.13752   0.00000  Uiso   1.00
H300   H     0.19078   0.42672   0.56166   0.00000  Uiso   1.00
H301   H     0.23113   0.54733   0.50943   0.00000  Uiso   1.00
H302   H     0.26770   0.54918   0.58973   0.00000  Uiso   1.00
H303   H     0.50601   0.44212   0.32082   0.00000  Uiso   1.00
H304   H     0.45094   0.40325   0.40376   0.00000  Uiso   1.00
H305   H     0.55048   0.42609   0.38309   0.00000  Uiso   1.00
H306   H     0.56916   0.50524   0.50794   0.00000  Uiso   1.00
H307   H     0.53897   0.58716   0.53522   0.00000  Uiso   1.00
H308   H     0.64438   0.64815   0.50032   0.00000  Uiso   1.00
H309   H     0.69724   0.75741   0.35499   0.00000  Uiso   1.00
H310   H     0.66799   0.66183   0.29481   0.00000  Uiso   1.00
H311   H     0.71170   0.65461   0.37669   0.00000  Uiso   1.00
H312   H     0.03058   0.31528   0.97044   0.00000  Uiso   1.00
H313   H     0.11694   0.29734   0.96949   0.00000  Uiso   1.00
H314   H     0.05859   0.27822   0.89474   0.00000  Uiso   1.00
H315   H     0.29365   0.47154   0.89516   0.00000  Uiso   1.00
H316   H     0.30287   0.55999   0.82882   0.00000  Uiso   1.00
H317   H     0.23191   0.42569   0.82347   0.00000  Uiso   1.00
H318   H     0.24466   0.28472   0.65382   0.00000  Uiso   1.00
H319   H     0.24338   0.38378   0.68391   0.00000  Uiso   1.00
H320   H     0.28084   0.31873   0.74079   0.00000  Uiso   1.00
H321   H     0.39200   0.62180   0.65622   0.00000  Uiso   1.00
H322   H     0.47902   0.63206   0.66630   0.00000  Uiso   1.00
H323   H     0.39763   0.55600   0.73296   0.00000  Uiso   1.00
H324   H     0.41898   0.35182   0.70558   0.00000  Uiso   1.00
H325   H     0.50613   0.47763   0.66665   0.00000  Uiso   1.00
H326   H     0.44856   0.37273   0.60760   0.00000  Uiso   1.00
H327   H     0.59769   0.57168   0.20754   0.00000  Uiso   1.00
H328   H     0.52193   0.56254   0.15324   0.00000  Uiso   1.00
H329   H     0.51705   0.58509   0.23855   0.00000  Uiso   1.00
H330   H     0.73380   0.80559   0.22436   0.00000  Uiso   1.00
H331   H     0.77231   0.89097   0.13881   0.00000  Uiso   1.00
H332   H     0.75815   0.76739   0.14753   0.00000  Uiso   1.00
H333   H     0.54835   0.70391   0.05335   0.00000  Uiso   1.00
H334   H     0.63475   0.69743   0.03671   0.00000  Uiso   1.00
H335   H     0.65596   0.83383   0.04422   0.00000  Uiso   1.00
H336   H     0.46611   0.79133   0.14733   0.00000  Uiso   1.00
H337   H     0.44361   0.69943   0.08589   0.00000  Uiso   1.00
H338   H     0.36137   0.70903   0.11808   0.00000  Uiso   1.00
H339   H     0.53685   0.90612   0.91316   0.00000  Uiso   1.00
H340   H     0.50199   0.77763   0.95535   0.00000  Uiso   1.00
H341   H     0.58931   0.89708   0.98696   0.00000  Uiso   1.00
H342   H     0.50760   0.74487   0.52669   0.00000  Uiso   1.00
H343   H     0.54321   0.85280   0.46084   0.00000  Uiso   1.00
H344   H     0.59768   0.79371   0.47342   0.00000  Uiso   1.00
H345   H     0.37920   0.72565   0.50534   0.00000  Uiso   1.00
H346   H     0.33749   0.74128   0.58665   0.00000  Uiso   1.00
H347   H     0.42409   0.85732   0.53436   0.00000  Uiso   1.00
H348   H     0.18747   0.71128   0.58260   0.00000  Uiso   1.00
H349   H     0.19572   0.82361   0.53836   0.00000  Uiso   1.00
H350   H     0.26827   0.84469   0.59920   0.00000  Uiso   1.00
H351   H     0.29472   0.71131   0.88709   0.00000  Uiso   1.00
H352   H     0.25942   0.78459   0.84947   0.00000  Uiso   1.00
H353   H     0.21101   0.70277   0.93413   0.00000  Uiso   1.00
H354   H     0.40789   1.00226   0.84538   0.00000  Uiso   1.00
H355   H     0.44191   0.91106   0.83792   0.00000  Uiso   1.00
H356   H     0.48883   1.01486   0.89032   0.00000  Uiso   1.00
H357   H     0.58021   0.30194   0.13473   0.00000  Uiso   1.00
H358   H     0.66250   0.38311   0.18313   0.00000  Uiso   1.00
H359   H     0.56707   0.27073   0.22985   0.00000  Uiso   1.00
H360   H     0.93345   0.23784   1.06000   0.00000  Uiso   1.00
H361   H     0.91912   0.15129   1.00180   0.00000  Uiso   1.00
H362   H     0.83696   0.10229   1.07119   0.00000  Uiso   1.00
H363   H     0.75122   0.04559  -0.04999   0.00000  Uiso   1.00
H364   H     0.72786   0.12249  -0.10176   0.00000  Uiso   1.00
H365   H     0.68449   0.07281  -0.00520   0.00000  Uiso   1.00
H366   H     0.91439   0.20954   0.87150   0.00000  Uiso   1.00
H367   H     0.95895   0.35076   0.88803   0.00000  Uiso   1.00
H368   H     0.86362   0.26714   0.85110   0.00000  Uiso   1.00
H369   H     0.88243   0.83366   0.49695   0.00000  Uiso   1.00
H370   H     0.81635   0.84876   0.43695   0.00000  Uiso   1.00
H371   H     0.85235   0.91971   0.51483   0.00000  Uiso   1.00
H372   H     0.88801   0.22066   0.27843   0.00000  Uiso   1.00
H373   H     0.87196   0.09642   0.26076   0.00000  Uiso   1.00
H374   H     0.96964   0.21385   0.25231   0.00000  Uiso   1.00
H375   H     0.71750   0.16804   0.25339   0.00000  Uiso   1.00
H376   H     0.61704   0.12022   0.29532   0.00000  Uiso   1.00
H377   H     0.70251   0.26145   0.27640   0.00000  Uiso   1.00
H378   H     0.78640  -0.03169   0.40395   0.00000  Uiso   1.00
H379   H     0.76093   0.06103   0.40056   0.00000  Uiso   1.00
H380   H     0.79948   0.03410   0.47920   0.00000  Uiso   1.00
H381   H     1.01714   0.31145   0.40046   0.00000  Uiso   1.00
H382   H     0.95255   0.22447   0.48356   0.00000  Uiso   1.00
H383   H     0.91897   0.27602   0.42407   0.00000  Uiso   1.00
H384   H     0.69406  -0.16503   0.58972   0.00000  Uiso   1.00
H385   H     0.63783  -0.27632   0.65844   0.00000  Uiso   1.00
H386   H     0.74268  -0.23025   0.62030   0.00000  Uiso   1.00
H387   H     0.76834   0.88683   0.83168   0.00000  Uiso   1.00
H388   H     0.78063   0.79042   0.79585   0.00000  Uiso   1.00
H389   H     0.68436   0.77471   0.80822   0.00000  Uiso   1.00
H390   H     0.95915   0.25889   0.62169   0.00000  Uiso   1.00
H391   H     0.90718   0.20005   0.70989   0.00000  Uiso   1.00
H392   H     0.85202   0.14711   0.63755   0.00000  Uiso   1.00
H393   H     0.99940   0.13618   0.76292   0.00000  Uiso   1.00
H394   H     1.05310   0.11214   0.70186   0.00000  Uiso   1.00
H395   H     0.96035   0.00110   0.75212   0.00000  Uiso   1.00
H396   H     0.84184   0.32939   0.20523   0.00000  Uiso   1.00
H397   H     0.93459   0.39926   0.14442   0.00000  Uiso   1.00
H398   H     0.86479   0.25981   0.15473   0.00000  Uiso   1.00
H399   H     0.97377   0.46509   0.98187   0.00000  Uiso   1.00
H400   H     1.05105   0.57971   1.01973   0.00000  Uiso   1.00
H401   H     1.02680   0.58629   0.92294   0.00000  Uiso   1.00
H402   H     0.71507   0.26900   0.44627   0.00000  Uiso   1.00
H403   H     0.68823   0.22842   0.53729   0.00000  Uiso   1.00
H404   H     0.78702   0.32826   0.51107   0.00000  Uiso   1.00
H405   H     0.76818   0.46021   0.38797   0.00000  Uiso   1.00
H406   H     0.76616   0.55042   0.42957   0.00000  Uiso   1.00
H407   H     0.68620   0.47229   0.37671   0.00000  Uiso   1.00
H408   H     0.54464   0.33077   0.53973   0.00000  Uiso   1.00
H409   H     0.55479   0.22475   0.54919   0.00000  Uiso   1.00
H410   H     0.54289   0.26656   0.46322   0.00000  Uiso   1.00
H411   H     0.79895   0.38463   0.90734   0.00000  Uiso   1.00
H412   H     0.88804   0.43831   0.84946   0.00000  Uiso   1.00
H413   H     0.78985   0.40836   0.81922   0.00000  Uiso   1.00
H414   H     0.98589   0.69779   0.83030   0.00000  Uiso   1.00
H415   H     0.92638   0.73593   0.80678   0.00000  Uiso   1.00
H416   H     0.92606   0.64329   0.76333   0.00000  Uiso   1.00
H417   H     0.72871   0.53806   0.93653   0.00000  Uiso   1.00
H418   H     0.71216   0.47994   0.85706   0.00000  Uiso   1.00
H419   H     0.75825   0.62083   0.85107   0.00000  Uiso   1.00
H420   H     0.85977   0.57829   0.23195   0.00000  Uiso   1.00
H421   H     0.81261   0.55592   0.15683   0.00000  Uiso   1.00
H422   H     0.81852   0.65588   0.19646   0.00000  Uiso   1.00
H423   H     0.64576   1.01341   0.10710   0.00000  Uiso   1.00
H424   H     0.71162   0.97813   0.12261   0.00000  Uiso   1.00
H425   H     0.71811   1.07927   0.16902   0.00000  Uiso   1.00
H426   H     1.03254   0.89114   0.94724   0.00000  Uiso   1.00
H427   H     0.96429   0.90075   0.89635   0.00000  Uiso   1.00
H428   H     0.94896   0.77697   0.93307   0.00000  Uiso   1.00
H429   H     0.91169   0.99295  -0.00931   0.00000  Uiso   1.00
H430   H     0.98952   1.02600   0.04486   0.00000  Uiso   1.00
H431   H     0.88526   0.95689   0.08256   0.00000  Uiso   1.00
H432   H     0.77084   0.76158   1.04085   0.00000  Uiso   1.00
H433   H     0.79317   0.66246   1.03228   0.00000  Uiso   1.00
H434   H     0.79471   0.73663   0.95705   0.00000  Uiso   1.00
H435   H     0.63691   0.35707   0.76471   0.00000  Uiso   1.00
H436   H     0.58409   0.27486   0.69776   0.00000  Uiso   1.00
H437   H     0.59515   0.39121   0.69544   0.00000  Uiso   1.00
H438   H     0.80803   0.35901   0.62337   0.00000  Uiso   1.00
H439   H     0.75668   0.31217   0.71404   0.00000  Uiso   1.00
H440   H     0.84976   0.45409   0.69496   0.00000  Uiso   1.00
H441   H     0.66081   0.89698   0.34512   0.00000  Uiso   1.00
H442   H     0.71878   1.01882   0.29711   0.00000  Uiso   1.00
H443   H     0.73840   0.92557   0.27833   0.00000  Uiso   1.00
H444   H     0.96312   0.97983   0.21090   0.00000  Uiso   1.00
H445   H     0.87282   0.89260   0.26418   0.00000  Uiso   1.00
H446   H     0.89837   0.83953   0.20267   0.00000  Uiso   1.00
H447   H     0.74680   0.60305   0.65297   0.00000  Uiso   1.00
H448   H     0.83959   0.61090   0.63800   0.00000  Uiso   1.00
H449   H     0.78646   0.56755   0.72833   0.00000  Uiso   1.00
H450   H     0.84063   0.68718   0.32690   0.00000  Uiso   1.00
H451   H     0.87139   0.72571   0.40582   0.00000  Uiso   1.00
H452   H     0.92734   0.69144   0.35389   0.00000  Uiso   1.00
H453   H     0.54109   0.74248   0.75607   0.00000  Uiso   1.00
H454   H     0.50204   0.81605   0.78696   0.00000  Uiso   1.00
H455   H     0.58060   0.81560   0.83489   0.00000  Uiso   1.00
H456   H     0.61423   0.97929   0.58898   0.00000  Uiso   1.00
H457   H     0.52893   0.91563   0.64625   0.00000  Uiso   1.00
H458   H     0.57191   0.85361   0.60472   0.00000  Uiso   1.00
H459   H     0.57155   1.02719   0.76983   0.00000  Uiso   1.00
H460   H     0.67575   1.11921   0.71968   0.00000  Uiso   1.00
H461   H     0.65646   1.04708   0.80690   0.00000  Uiso   1.00
loop_
_geom_bond_atom_site_label_1
_geom_bond_atom_site_label_2
_geom_bond_distance
_geom_bond_site_symmetry_2
_ccdc_geom_bond_type
Si1    O52     1.647   .     S
Si1    O89     1.624   .     S
Si1    O80     1.625   1_545 S
Si1    O82     1.601   1_545 S
Si2    O52     1.575   .     S
Si2    C61     1.826   .     S
Si2    C53     1.833   1_554 S
Si2    C54     1.838   1_554 S
Si3    O57     1.605   .     S
Si3    O98     1.602   .     S
Si3    C55     1.814   1_545 S
Si3    O88     1.609   1_545 S
Si4    O58     1.608   .     S
Si4    O66     1.597   .     S
Si4    O150    1.586   1_455 S
Si4    O159    1.646   1_455 S
Si5    C56     1.872   .     S
Si5    O57     1.637   .     S
Si5    O67     1.663   .     S
Si5    C92     1.915   .     S
Si6    O58     1.618   .     S
Si6    C59     1.895   .     S
Si6    C75     1.913   .     S
Si6    O100    1.594   .     S
Si7    C60     1.851   .     S
Si7    C62     1.840   .     S
Si7    C63     1.877   .     S
Si7    O64     1.587   .     S
Si8    O64     1.580   .     S
Si8    O79     1.571   .     S
Si8    C65     1.911   1_554 S
Si8    O117    1.594   1_554 S
Si9    O66     1.638   .     S
Si9    O67     1.604   .     S
Si9    O72     1.603   .     S
Si9    O109    1.565   .     S
Si10   C68     1.842   .     S
Si10   O84     1.546   .     S
Si10   C69     1.811   1_455 S
Si10   C70     1.941   1_455 S
Si11   C71     1.842   .     S
Si11   O72     1.604   .     S
Si11   C73     1.876   .     S
Si11   O85     1.595   .     S
Si12   C74     1.841   .     S
Si12   C76     1.884   .     S
Si12   C77     1.890   .     S
Si12   O114    1.582   .     S
Si13   C78     1.865   .     S
Si13   O79     1.622   .     S
Si13   O81     1.597   .     S
Si13   O124    1.607   .     S
Si14   O80     1.632   .     S
Si14   O86     1.623   .     S
Si14   O177    1.628   1_455 S
Si14   O188    1.589   1_455 S
Si15   O81     1.565   .     S
Si15   O82     1.573   .     S
Si15   C83     1.836   1_554 S
Si15   O144    1.634   1_554 S
Si16   O84     1.607   .     S
Si16   O85     1.590   .     S
Si16   O87     1.603   .     S
Si16   O134    1.568   .     S
Si17   O86     1.659   .     S
Si17   O87     1.644   .     S
Si17   O88     1.641   .     S
Si17   O126    1.594   .     S
Si18   O93     1.613   .     S
Si18   O145    1.637   .     S
Si18   O125    1.613   1_545 S
Si18   O129    1.569   1_545 S
Si19   O89     1.634   .     S
Si19   C90     1.875   .     S
Si19   C91     1.789   .     S
Si19   O105    1.607   .     S
Si20   O93     1.593   .     S
Si20   O106    1.594   .     S
Si20   C94     1.849   1_554 S
Si20   C95     1.856   1_554 S
Si21   C96     1.841   .     S
Si21   C97     1.830   .     S
Si21   O136    1.577   1_545 S
Si21   O140    1.619   1_545 S
Si22   O98     1.574   .     S
Si22   C99     1.856   .     S
Si22   O100    1.600   .     S
Si22   O101    1.567   .     S
Si23   O101    1.572   .     S
Si23   C102    1.902   .     S
Si23   C103    1.887   .     S
Si23   C104    1.842   .     S
Si24   O105    1.594   .     S
Si24   O106    1.618   .     S
Si24   C107    1.849   .     S
Si24   C108    1.867   .     S
Si25   O109    1.575   .     S
Si25   C110    1.860   .     S
Si25   O118    1.588   .     S
Si25   O131    1.639   .     S
Si26   C111    1.871   .     S
Si26   C112    1.865   .     S
Si26   C113    1.875   .     S
Si26   O132    1.638   .     S
Si27   O114    1.595   .     S
Si27   C115    1.857   .     S
Si27   C116    1.863   .     S
Si27   O117    1.580   .     S
Si28   O118    1.575   .     S
Si28   C119    1.868   .     S
Si28   C120    1.871   .     S
Si28   C121    1.884   .     S
Si29   C122    1.820   .     S
Si29   C123    1.895   .     S
Si29   C127    1.882   .     S
Si29   O178    1.570   .     S
Si30   O124    1.630   .     S
Si30   O125    1.634   .     S
Si30   O126    1.640   .     S
Si30   O138    1.621   .     S
Si31   C128    1.850   .     S
Si31   O129    1.569   .     S
Si31   C130    1.817   1_554 S
Si31   O142    1.589   1_554 S
Si32   O131    1.624   .     S
Si32   O132    1.581   .     S
Si32   C133    1.848   .     S
Si32   O139    1.653   .     S
Si33   O134    1.539   .     S
Si33   C135    1.845   .     S
Si33   O136    1.550   .     S
Si33   C137    1.859   .     S
Si34   O138    1.617   .     S
Si34   O139    1.599   .     S
Si34   O140    1.579   .     S
Si34   O180    1.557   .     S
Si35   C141    1.858   .     S
Si35   O142    1.558   .     S
Si35   C143    1.893   .     S
Si35   O144    1.611   .     S
Si36   O145    1.581   .     S
Si36   C146    1.902   .     S
Si36   C153    1.910   .     S
Si36   O163    1.578   .     S
Si37   C148    1.881   .     S
Si37   O164    1.593   .     S
Si37   C147    1.828   1_554 S
Si37   C149    1.867   1_554 S
Si38   O150    1.567   .     S
Si38   O155    1.561   .     S
Si38   C151    1.892   1_545 S
Si38   O193    1.562   1_545 S
Si39   C152    1.835   .     S
Si39   C154    1.895   .     S
Si39   O155    1.552   .     S
Si39   C156    1.840   .     S
Si40   C157    1.862   .     S
Si40   O161    1.585   .     S
Si40   C158    1.907   1_545 S
Si40   O197    1.584   1_545 S
Si41   O159    1.579   .     S
Si41   C160    1.820   .     S
Si41   O161    1.674   .     S
Si41   C162    1.835   .     S
Si42   O163    1.622   .     S
Si42   O164    1.593   .     S
Si42   C165    1.868   .     S
Si42   O167    1.607   .     S
Si43   O167    1.596   .     S
Si43   O176    1.579   .     S
Si43   C166    1.854   1_554 S
Si43   O172    1.600   1_554 S
Si44   C168    1.893   .     S
Si44   C169    1.895   .     S
Si44   C170    1.884   .     S
Si44   O186    1.570   .     S
Si45   C171    1.845   .     S
Si45   O172    1.620   .     S
Si45   C173    1.870   .     S
Si45   C174    1.858   .     S
Si46   C175    1.868   .     S
Si46   O176    1.614   .     S
Si46   O177    1.630   .     S
Si46   O182    1.665   .     S
Si47   O178    1.610   .     S
Si47   C179    1.820   .     S
Si47   O180    1.602   .     S
Si47   C189    1.875   .     S
Si48   O182    1.584   .     S
Si48   C183    1.863   .     S
Si48   C181    1.850   1_554 S
Si48   C184    1.881   1_554 S
Si49   C185    1.844   .     S
Si49   O186    1.614   .     S
Si49   C187    1.902   .     S
Si49   C191    1.871   .     S
Si50   O188    1.613   .     S
Si50   C190    1.836   .     S
Si50   C192    1.900   .     S
Si50   O193    1.583   .     S
Si51   C194    1.876   .     S
Si51   C195    1.870   .     S
Si51   C196    1.856   .     S
Si51   O197    1.615   .     S
C53    H198    1.152   .     S
C53    H199    1.106   .     S
C53    H200    1.113   .     S
C53    Si2     1.833   1_556 S
C54    H201    1.094   .     S
C54    H202    1.125   .     S
C54    H203    1.112   .     S
C54    Si2     1.838   1_556 S
C55    H204    1.048   .     S
C55    H205    1.077   .     S
C55    H206    1.089   .     S
C55    Si3     1.814   1_565 S
C56    H207    1.150   .     S
C56    H208    1.126   .     S
C56    H209    1.075   .     S
C59    H210    1.058   .     S
C59    H211    1.126   .     S
C59    H212    1.101   .     S
C60    H213    1.066   .     S
C60    H214    1.102   .     S
C60    H215    1.077   .     S
C61    H216    1.083   .     S
C61    H217    1.114   .     S
C61    H218    1.083   .     S
C62    H219    1.055   .     S
C62    H220    1.145   .     S
C62    H221    1.070   .     S
C63    H222    1.050   .     S
C63    H223    1.093   .     S
C63    H224    1.117   .     S
C65    H225    1.085   .     S
C65    H226    1.168   .     S
C65    H227    1.120   .     S
C65    Si8     1.911   1_556 S
C68    H228    1.137   .     S
C68    H229    1.111   .     S
C68    H230    1.112   .     S
C69    H231    1.093   .     S
C69    H232    1.138   .     S
C69    H233    1.113   .     S
C69    Si10    1.811   1_655 S
C70    H234    1.159   .     S
C70    H235    1.081   .     S
C70    H236    1.118   .     S
C70    Si10    1.941   1_655 S
C71    H237    1.123   .     S
C71    H238    1.125   .     S
C71    H239    1.179   .     S
C73    H240    1.092   .     S
C73    H241    1.157   .     S
C73    H242    1.100   .     S
C74    H243    1.091   .     S
C74    H244    1.085   .     S
C74    H245    1.097   .     S
C75    H246    1.144   .     S
C75    H247    1.131   .     S
C75    H248    1.123   .     S
C76    H249    1.069   .     S
C76    H250    1.123   .     S
C76    H251    1.114   .     S
C77    H252    1.113   .     S
C77    H253    1.158   .     S
C77    H254    1.114   .     S
C78    H255    1.129   .     S
C78    H256    1.104   .     S
C78    H257    1.128   .     S
O80    Si1     1.625   1_565 S
O82    Si1     1.601   1_565 S
C83    H258    1.180   .     S
C83    H259    1.075   .     S
C83    H260    1.129   .     S
C83    Si15    1.836   1_556 S
O88    Si3     1.609   1_565 S
C90    H261    1.114   .     S
C90    H262    1.079   .     S
C90    H263    1.116   .     S
C91    H264    1.127   .     S
C91    H265    1.120   .     S
C91    H266    1.069   .     S
C92    H267    1.071   .     S
C92    H268    1.107   .     S
C92    H269    1.086   .     S
C94    H270    1.083   .     S
C94    H271    1.047   .     S
C94    H272    1.093   .     S
C94    Si20    1.849   1_556 S
C95    H273    1.079   .     S
C95    H274    1.130   .     S
C95    H275    1.116   .     S
C95    Si20    1.856   1_556 S
C96    H276    1.068   .     S
C96    H277    1.092   .     S
C96    H278    1.105   .     S
C97    H279    1.142   .     S
C97    H280    1.062   .     S
C97    H281    1.081   .     S
C99    H282    1.071   .     S
C99    H283    1.067   .     S
C99    H284    1.101   .     S
C102   H285    1.156   .     S
C102   H286    1.084   .     S
C102   H287    1.151   .     S
C103   H288    1.089   .     S
C103   H289    1.113   .     S
C103   H290    1.085   .     S
C104   H291    1.087   .     S
C104   H292    1.153   .     S
C104   H293    1.107   .     S
C107   H294    1.168   .     S
C107   H295    1.125   .     S
C107   H296    1.147   .     S
C108   H297    1.111   .     S
C108   H298    1.078   .     S
C108   H299    1.129   .     S
C110   H300    1.095   .     S
C110   H301    1.095   .     S
C110   H302    1.095   .     S
C111   H303    1.059   .     S
C111   H304    1.110   .     S
C111   H305    1.087   .     S
C112   H306    1.132   .     S
C112   H307    1.098   .     S
C112   H308    1.120   .     S
C113   H309    1.120   .     S
C113   H310    1.142   .     S
C113   H311    1.088   .     S
C115   H312    1.163   .     S
C115   H313    1.111   .     S
C115   H314    1.128   .     S
C116   H315    1.107   .     S
C116   H316    1.095   .     S
C116   H317    1.086   .     S
O117   Si8     1.594   1_556 S
C119   H318    1.029   .     S
C119   H319    1.126   .     S
C119   H320    1.132   .     S
C120   H321    1.124   .     S
C120   H322    1.062   .     S
C120   H323    1.085   .     S
C121   H324    1.103   .     S
C121   H325    1.131   .     S
C121   H326    1.152   .     S
C122   H327    1.101   .     S
C122   H328    1.094   .     S
C122   H329    1.048   .     S
C123   H330    1.094   .     S
C123   H331    1.156   .     S
C123   H332    1.081   .     S
O125   Si18    1.613   1_565 S
C127   H333    1.134   .     S
C127   H334    1.141   .     S
C127   H335    1.132   .     S
C128   H336    1.127   .     S
C128   H337    1.122   .     S
C128   H338    1.089   .     S
O129   Si18    1.569   1_565 S
C130   H339    1.117   .     S
C130   H340    1.132   .     S
C130   H341    1.109   .     S
C130   Si31    1.817   1_556 S
C133   H342    1.089   .     S
C133   H343    1.121   .     S
C133   H344    1.086   .     S
C135   H345    1.155   .     S
C135   H346    1.111   .     S
C135   H347    1.115   .     S
O136   Si21    1.577   1_565 S
C137   H348    1.147   .     S
C137   H349    1.088   .     S
C137   H350    1.143   .     S
O140   Si21    1.619   1_565 S
C141   H351    1.097   .     S
C141   H352    1.096   .     S
C141   H353    1.065   .     S
O142   Si31    1.589   1_556 S
C143   H354    1.111   .     S
C143   H355    1.095   .     S
C143   H356    1.107   .     S
O144   Si15    1.634   1_556 S
C146   H357    1.118   .     S
C146   H358    1.119   .     S
C146   H359    1.095   .     S
C147   H360    1.087   .     S
C147   H361    1.133   .     S
C147   H362    1.169   .     S
C147   Si37    1.828   1_556 S
C148   H363    1.102   .     S
C148   H364    1.113   .     S
C148   H365    1.115   .     S
C149   H366    1.118   .     S
C149   H367    1.164   .     S
C149   H368    1.067   .     S
C149   Si37    1.867   1_556 S
O150   Si4     1.586   1_655 S
C151   H369    1.133   .     S
C151   H370    1.149   .     S
C151   H371    1.103   .     S
C151   Si38    1.892   1_565 S
C152   H372    1.056   .     S
C152   H373    1.098   .     S
C152   H374    1.074   .     S
C153   H375    1.115   .     S
C153   H376    1.142   .     S
C153   H377    1.077   .     S
C154   H378    1.131   .     S
C154   H379    1.091   .     S
C154   H380    1.102   .     S
C156   H381    1.097   .     S
C156   H382    1.135   .     S
C156   H383    1.065   .     S
C157   H384    1.113   .     S
C157   H385    1.162   .     S
C157   H386    1.112   .     S
C158   H387    1.106   .     S
C158   H388    1.119   .     S
C158   H389    1.101   .     S
C158   Si40    1.907   1_565 S
O159   Si4     1.646   1_655 S
C160   H390    1.098   .     S
C160   H391    1.107   .     S
C160   H392    1.124   .     S
C162   H393    1.078   .     S
C162   H394    1.100   .     S
C162   H395    1.112   .     S
C165   H396    1.092   .     S
C165   H397    1.088   .     S
C165   H398    1.105   .     S
C166   H399    1.099   .     S
C166   H400    1.145   .     S
C166   H401    1.163   .     S
C166   Si43    1.854   1_556 S
C168   H402    1.081   .     S
C168   H403    1.081   .     S
C168   H404    1.101   .     S
C169   H405    1.105   .     S
C169   H406    1.065   .     S
C169   H407    1.149   .     S
C170   H408    1.109   .     S
C170   H409    1.078   .     S
C170   H410    1.151   .     S
C171   H411    1.129   .     S
C171   H412    1.075   .     S
C171   H413    1.111   .     S
O172   Si43    1.600   1_556 S
C173   H414    1.053   .     S
C173   H415    1.066   .     S
C173   H416    1.046   .     S
C174   H417    1.137   .     S
C174   H418    1.086   .     S
C174   H419    1.138   .     S
C175   H420    1.093   .     S
C175   H421    1.070   .     S
C175   H422    1.183   .     S
O177   Si14    1.628   1_655 S
C179   H423    1.107   .     S
C179   H424    1.069   .     S
C179   H425    1.096   .     S
C181   H426    1.071   .     S
C181   H427    1.088   .     S
C181   H428    1.061   .     S
C181   Si48    1.850   1_556 S
C183   H429    1.111   .     S
C183   H430    1.072   .     S
C183   H431    1.089   .     S
C184   H432    1.099   .     S
C184   H433    1.120   .     S
C184   H434    1.072   .     S
C184   Si48    1.881   1_556 S
C185   H435    1.081   .     S
C185   H436    1.078   .     S
C185   H437    1.114   .     S
C187   H438    1.112   .     S
C187   H439    1.156   .     S
C187   H440    1.192   .     S
O188   Si14    1.589   1_655 S
C189   H441    1.119   .     S
C189   H442    1.069   .     S
C189   H443    1.085   .     S
C190   H444    1.086   .     S
C190   H445    1.039   .     S
C190   H446    1.116   .     S
C191   H447    1.139   .     S
C191   H448    1.113   .     S
C191   H449    1.125   .     S
C192   H450    1.113   .     S
C192   H451    1.089   .     S
C192   H452    1.129   .     S
O193   Si38    1.562   1_565 S
C194   H453    1.158   .     S
C194   H454    1.119   .     S
C194   H455    1.129   .     S
C195   H456    1.091   .     S
C195   H457    1.071   .     S
C195   H458    1.084   .     S
C196   H459    1.146   .     S
C196   H460    1.108   .     S
C196   H461    1.102   .     S
O197   Si40    1.584   1_565 S
