data_333-9-11-16-15-30-16
_audit_creation_date              2025-03-07
_audit_creation_method            'Materials Studio'
_symmetry_space_group_name_H-M    'P1'
_symmetry_Int_Tables_number       1
_symmetry_cell_setting            triclinic
loop_
_symmetry_equiv_pos_as_xyz
  x,y,z
_cell_length_a                    16.3215
_cell_length_b                    17.9653
_cell_length_c                    19.7379
_cell_angle_alpha                 102.0302
_cell_angle_beta                  89.8325
_cell_angle_gamma                 121.0161
loop_
_atom_site_label
_atom_site_type_symbol
_atom_site_fract_x
_atom_site_fract_y
_atom_site_fract_z
_atom_site_U_iso_or_equiv
_atom_site_adp_type
_atom_site_occupancy
Si1    Si    0.20688  -0.01424   0.12720   0.00000  Uiso   1.00
Si2    Si   -0.03385   0.11772   0.23313   0.00000  Uiso   1.00
Si3    Si    0.15153   0.02440   0.41686   0.00000  Uiso   1.00
Si4    Si    0.08577   0.40899   0.54988   0.00000  Uiso   1.00
Si5    Si    0.15206   0.14197   0.32358   0.00000  Uiso   1.00
Si6    Si    0.04537  -0.15685   0.76369   0.00000  Uiso   1.00
Si7    Si   -0.03942   0.13075   0.96064   0.00000  Uiso   1.00
Si8    Si    0.10867   0.29473   0.20009   0.00000  Uiso   1.00
Si9    Si   -0.16806   0.37808   0.07055   0.00000  Uiso   1.00
Si10   Si    0.26155   0.56083   0.50909   0.00000  Uiso   1.00
Si11   Si    0.00130   0.56598   0.44665   0.00000  Uiso   1.00
Si12   Si    0.30282   0.67792   0.40390   0.00000  Uiso   1.00
Si13   Si    0.05124   0.84896   0.19630   0.00000  Uiso   1.00
Si14   Si    0.23038   0.88064  -0.00154   0.00000  Uiso   1.00
Si15   Si    0.16471   0.74177   0.41650   0.00000  Uiso   1.00
Si16   Si   -0.03681   0.87921   0.45465   0.00000  Uiso   1.00
Si17   Si    0.16373   0.86620   0.33187   0.00000  Uiso   1.00
Si18   Si   -0.12218   0.79264   0.85395   0.00000  Uiso   1.00
Si19   Si    0.50494  -0.05439   0.16331   0.00000  Uiso   1.00
Si20   Si    0.33535   0.15868   0.24905   0.00000  Uiso   1.00
Si21   Si    0.27359   0.15108   0.54930   0.00000  Uiso   1.00
Si22   Si    0.51378   0.17885   0.33804   0.00000  Uiso   1.00
Si23   Si    0.70769   0.02164   0.76281   0.00000  Uiso   1.00
Si24   Si    0.16989   0.04782   0.80325   0.00000  Uiso   1.00
Si25   Si    0.46572   0.29792   0.16886   0.00000  Uiso   1.00
Si26   Si    0.46508   0.43534   0.10002   0.00000  Uiso   1.00
Si27   Si    0.55710   0.36940   0.40931   0.00000  Uiso   1.00
Si28   Si    0.40845   0.65395   0.63888   0.00000  Uiso   1.00
Si29   Si    0.58997   0.51843   0.34767   0.00000  Uiso   1.00
Si30   Si    0.38300   0.17551   0.81445   0.00000  Uiso   1.00
Si31   Si    0.47379   0.61415   0.13293   0.00000  Uiso   1.00
Si32   Si    0.42464   0.61187  -0.01071   0.00000  Uiso   1.00
Si33   Si    0.27163   0.86860   0.55638   0.00000  Uiso   1.00
Si34   Si    0.67433   0.87944   0.33882   0.00000  Uiso   1.00
Si35   Si    0.81312  -0.04484   0.11626   0.00000  Uiso   1.00
Si36   Si    0.65467   0.13149   0.25019   0.00000  Uiso   1.00
Si37   Si    0.78934   0.08424   0.04353   0.00000  Uiso   1.00
Si38   Si    0.90999   0.22053   0.49177   0.00000  Uiso   1.00
Si39   Si    0.85148   0.19381   0.33455   0.00000  Uiso   1.00
Si40   Si    0.66298   0.04745   0.91046   0.00000  Uiso   1.00
Si41   Si    1.06840   0.46765   0.70488   0.00000  Uiso   1.00
Si42   Si    0.72694   0.20961   0.12306   0.00000  Uiso   1.00
Si43   Si    0.86875   0.37192   0.37117   0.00000  Uiso   1.00
Si44   Si    0.64470   0.45985   0.55905   0.00000  Uiso   1.00
Si45   Si    0.97185   0.54820   0.18433   0.00000  Uiso   1.00
Si46   Si    0.67246   0.37128   0.66497   0.00000  Uiso   1.00
Si47   Si    0.90280   0.71710   0.07229   0.00000  Uiso   1.00
Si48   Si    0.66850   0.79996   0.18601   0.00000  Uiso   1.00
Si49   Si    0.83966   0.82300   0.00655   0.00000  Uiso   1.00
Si50   Si    0.62437   0.71432   0.94609   0.00000  Uiso   1.00
Si51   Si    0.83040   0.90059   0.55471   0.00000  Uiso   1.00
C52    C     0.13854   0.02747   0.08283   0.00000  Uiso   1.00
C53    C     0.16560   0.37012   0.57661   0.00000  Uiso   1.00
O54    O     0.05321   0.11435   0.27367   0.00000  Uiso   1.00
O55    O     0.12988   0.05761   0.35388   0.00000  Uiso   1.00
C56    C    -0.03329  -0.21859   0.67950   0.00000  Uiso   1.00
C57    C     0.12234   0.79289   0.76966   0.00000  Uiso   1.00
C58    C     0.06835   0.15079   1.01119   0.00000  Uiso   1.00
C59    C    -0.01296   0.22340   0.92050   0.00000  Uiso   1.00
C60    C     0.89563   0.01986   0.89743   0.00000  Uiso   1.00
O61    O     0.02291   0.19457   0.18966   0.00000  Uiso   1.00
C62    C     0.22606   0.29799   0.19757   0.00000  Uiso   1.00
C63    C     0.09401   0.34919   0.13422   0.00000  Uiso   1.00
C64    C     0.11532   0.35885   0.28781   0.00000  Uiso   1.00
C65    C    -0.25779   0.38800   0.02632   0.00000  Uiso   1.00
O66    O     0.15059   0.48810   0.51206   0.00000  Uiso   1.00
C67    C     0.19313   0.24560   0.39638   0.00000  Uiso   1.00
C68    C     0.32356   0.50476   0.46638   0.00000  Uiso   1.00
C69    C     0.04452   0.59228   0.54122   0.00000  Uiso   1.00
C70    C    -0.10031   0.34116   0.01068   0.00000  Uiso   1.00
C71    C     0.24910   0.58928   0.32475   0.00000  Uiso   1.00
O72    O     0.26848   0.63506   0.46836   0.00000  Uiso   1.00
C73    C     0.43804   0.73864   0.40925   0.00000  Uiso   1.00
O74    O     0.14485   0.89951   0.15825   0.00000  Uiso   1.00
C75    C     1.00825   0.92426   0.21287   0.00000  Uiso   1.00
C76    C     0.23700   0.78809   0.01746   0.00000  Uiso   1.00
O77    O     0.25544   0.95737   0.06369   0.00000  Uiso   1.00
C78    C     0.31763   0.92487   0.93475   0.00000  Uiso   1.00
O79    O     0.07986   0.63821   0.40989   0.00000  Uiso   1.00
O80    O     0.26215   0.74128   0.40023   0.00000  Uiso   1.00
C81    C    -0.00236   0.83799   0.51891   0.00000  Uiso   1.00
O82    O     0.05369   0.97535   0.45096   0.00000  Uiso   1.00
C83    C     0.91448   0.78946   0.37573   0.00000  Uiso   1.00
O84    O     0.08014   0.83619   0.26879   0.00000  Uiso   1.00
O85    O     0.13670   0.78411   0.36637   0.00000  Uiso   1.00
O86    O     0.17989   0.95299   0.38486   0.00000  Uiso   1.00
C87    C     0.28533   0.90471   0.29734   0.00000  Uiso   1.00
C88    C    -0.15436   0.67992   0.85001   0.00000  Uiso   1.00
C89    C     0.10926   0.83215   0.94819   0.00000  Uiso   1.00
O90    O    -0.01623   0.83774   0.82983   0.00000  Uiso   1.00
C91    C     0.80462   0.80294   0.78928   0.00000  Uiso   1.00
C92    C     0.41063  -0.03046   0.15857   0.00000  Uiso   1.00
C93    C     0.44737   0.85070   0.20910   0.00000  Uiso   1.00
O94    O     0.29450   0.07065   0.18624   0.00000  Uiso   1.00
O95    O     0.24581   0.16095   0.28249   0.00000  Uiso   1.00
O96    O     0.23678   0.10578   0.46859   0.00000  Uiso   1.00
C97    C     0.40780   0.18550   0.56328   0.00000  Uiso   1.00
C98    C     0.20715   0.06775   0.60462   0.00000  Uiso   1.00
O99    O     0.41248   0.15429   0.29954   0.00000  Uiso   1.00
C100   C     0.49508   0.11568   0.40296   0.00000  Uiso   1.00
C101   C     0.81330   0.11500   0.73561   0.00000  Uiso   1.00
C102   C     0.59493   1.01360   0.72788   0.00000  Uiso   1.00
C103   C     0.69086   0.91309   0.73222   0.00000  Uiso   1.00
O104   O     0.11265  -0.05443   0.75960   0.00000  Uiso   1.00
C105   C     0.17898   0.05658   0.89752   0.00000  Uiso   1.00
C106   C     0.11489   0.10904   0.77601   0.00000  Uiso   1.00
O107   O     0.39370   0.25037   0.22289   0.00000  Uiso   1.00
C108   C     0.41719   0.21000   0.08543   0.00000  Uiso   1.00
C109   C     0.58976   0.32585   0.18901   0.00000  Uiso   1.00
O110   O     0.46413   0.38496   0.15690   0.00000  Uiso   1.00
C111   C     0.33971   0.36809   1.04292   0.00000  Uiso   1.00
C112   C     0.56117   0.44421   1.04670   0.00000  Uiso   1.00
C113   C     0.26236   0.24762   0.58068   0.00000  Uiso   1.00
C114   C     0.43281   0.32532   0.42512   0.00000  Uiso   1.00
O115   O     0.56896   0.28551   0.37613   0.00000  Uiso   1.00
O116   O     0.31362   0.61231   0.58779   0.00000  Uiso   1.00
C117   C     0.41235   0.55913   0.65892   0.00000  Uiso   1.00
C118   C     0.51638   0.71875   0.59274   0.00000  Uiso   1.00
C119   C     0.40608   0.71841   0.72090   0.00000  Uiso   1.00
C120   C     0.47440   0.50207   0.31626   0.00000  Uiso   1.00
O121   O     0.58115   0.42859   0.35470   0.00000  Uiso   1.00
C122   C     0.62590   0.59793   0.43471   0.00000  Uiso   1.00
C123   C     0.69041   0.57578   0.29415   0.00000  Uiso   1.00
O124   O     0.27956   0.09631   0.78539   0.00000  Uiso   1.00
C125   C     0.46746   0.15977   0.76607   0.00000  Uiso   1.00
C126   C     0.39375   0.28713   0.81655   0.00000  Uiso   1.00
C127   C     0.42811   0.18193   0.90425   0.00000  Uiso   1.00
C128   C     0.40164   0.62306   0.20408   0.00000  Uiso   1.00
O129   O     0.49003   0.53381   0.13859   0.00000  Uiso   1.00
O130   O     0.41114   0.58621   0.05950   0.00000  Uiso   1.00
C131   C     0.35847   0.66919  -0.02291   0.00000  Uiso   1.00
C132   C     0.53247   0.91000   0.07455   0.00000  Uiso   1.00
C133   C     0.36619   0.50752   0.91807   0.00000  Uiso   1.00
O134   O     0.18554   0.79769   0.49512   0.00000  Uiso   1.00
C135   C     0.32765   0.81349   0.58302   0.00000  Uiso   1.00
C136   C     0.36673   0.95591   0.51986   0.00000  Uiso   1.00
C137   C     0.22309   0.90038   0.63434   0.00000  Uiso   1.00
C138   C     0.61686   0.93782   0.38473   0.00000  Uiso   1.00
C139   C     0.66108   0.78248   0.37369   0.00000  Uiso   1.00
C140   C     0.80933   0.96151   0.34986   0.00000  Uiso   1.00
O141   O     0.89621   0.02007   0.18093   0.00000  Uiso   1.00
O142   O     0.59854   0.03145   0.20604   0.00000  Uiso   1.00
O143   O     0.57380   0.15279   0.28550   0.00000  Uiso   1.00
O144   O     0.89275   0.12933   1.01814   0.00000  Uiso   1.00
O145   O     0.77849   0.00867   0.08167   0.00000  Uiso   1.00
O146   O     0.99154   0.32608   0.50271   0.00000  Uiso   1.00
C147   C     0.80849   1.20437   0.54767   0.00000  Uiso   1.00
C148   C     0.96492   1.15902   0.52213   0.00000  Uiso   1.00
O149   O     0.90660   0.15032   0.28979   0.00000  Uiso   1.00
O150   O     0.73609   0.13863   0.30364   0.00000  Uiso   1.00
O151   O     0.86357   0.18082   0.41220   0.00000  Uiso   1.00
O152   O     0.71497   0.03597   0.84371   0.00000  Uiso   1.00
O153   O     0.71070   0.03962   0.97709   0.00000  Uiso   1.00
C154   C     0.67583   0.15424   0.92299   0.00000  Uiso   1.00
C155   C     0.53766  -0.04250   0.89103   0.00000  Uiso   1.00
O156   O     1.05466   0.44419   0.62065   0.00000  Uiso   1.00
C157   C     0.96447   0.37131   0.74084   0.00000  Uiso   1.00
C158   C     1.17960   0.48353   0.74747   0.00000  Uiso   1.00
C159   C     1.06235   0.57163   0.73316   0.00000  Uiso   1.00
O160   O     0.71184   0.20149   0.20342   0.00000  Uiso   1.00
O161   O     0.78629   0.16647   0.09023   0.00000  Uiso   1.00
C162   C     0.59946   0.14692   0.07914   0.00000  Uiso   1.00
O163   O     0.78483   0.30995   0.11996   0.00000  Uiso   1.00
C164   C     0.79153   0.33705   0.44216   0.00000  Uiso   1.00
O165   O     0.89329   0.29541   0.34058   0.00000  Uiso   1.00
O166   O     0.96403   0.46437   0.40609   0.00000  Uiso   1.00
O167   O     0.63272   0.42820   0.47659   0.00000  Uiso   1.00
C168   C     0.75962   0.57004   0.59105   0.00000  Uiso   1.00
C169   C     0.53863   0.46362   0.58955   0.00000  Uiso   1.00
O170   O     0.91436   0.47726   0.11191   0.00000  Uiso   1.00
C171   C     0.88344   0.57107   0.23148   0.00000  Uiso   1.00
C172   C     0.78961   0.38297   0.30853   0.00000  Uiso   1.00
C173   C     1.01393   0.49675   0.23889   0.00000  Uiso   1.00
C174   C     1.08520   0.64888   0.16377   0.00000  Uiso   1.00
C175   C     0.89926   0.58140   0.45058   0.00000  Uiso   1.00
C176   C     0.79789   0.45924   0.70416   0.00000  Uiso   1.00
O177   O     0.65441   0.39283   0.59329   0.00000  Uiso   1.00
C178   C     0.65621   0.25866   0.64609   0.00000  Uiso   1.00
C179   C     0.59540   0.38394   0.72420   0.00000  Uiso   1.00
C180   C     0.78076   0.63100   0.07724   0.00000  Uiso   1.00
C181   C     0.94524   0.65564   0.01298   0.00000  Uiso   1.00
O182   O     0.96909   0.76077   0.14620   0.00000  Uiso   1.00
O183   O     0.57729   0.70724   0.13949   0.00000  Uiso   1.00
C184   C     0.75371   0.76543   0.20892   0.00000  Uiso   1.00
O185   O     0.71690   0.87209   0.13800   0.00000  Uiso   1.00
O186   O     0.64181   0.84033   0.25770   0.00000  Uiso   1.00
O187   O     0.88059   0.84508   0.93208   0.00000  Uiso   1.00
O188   O     0.89939   0.79120   0.04271   0.00000  Uiso   1.00
O189   O     0.85055   0.90939   0.05832   0.00000  Uiso   1.00
C190   C     0.60917   0.63200   0.85916   0.00000  Uiso   1.00
O191   O     0.72151   0.74569   0.98962   0.00000  Uiso   1.00
C192   C     0.62890   0.81458   0.92203   0.00000  Uiso   1.00
O193   O     0.53703   0.67884   0.99009   0.00000  Uiso   1.00
O194   O     0.87982   0.89480   0.48745   0.00000  Uiso   1.00
C195   C     0.74142   0.93417   0.54608   0.00000  Uiso   1.00
C196   C     0.77559   0.79391   0.58056   0.00000  Uiso   1.00
C197   C     0.92496   0.98905   0.62580   0.00000  Uiso   1.00
H198   H     0.18969   0.08249   0.05972   0.00000  Uiso   1.00
H199   H     0.09601   0.04552   0.12077   0.00000  Uiso   1.00
H200   H     0.08991  -0.02853   0.03623   0.00000  Uiso   1.00
H201   H     0.24140   0.42427   0.59745   0.00000  Uiso   1.00
H202   H     0.16956   0.32532   0.52944   0.00000  Uiso   1.00
H203   H     0.12901   0.32879   0.61507   0.00000  Uiso   1.00
H204   H    -0.08314  -0.28788   0.68011   0.00000  Uiso   1.00
H205   H     0.00867  -0.21881   0.63435   0.00000  Uiso   1.00
H206   H    -0.07616  -0.18650   0.67522   0.00000  Uiso   1.00
H207   H     0.08386   0.74508   0.80125   0.00000  Uiso   1.00
H208   H     0.19838   0.84470   0.79310   0.00000  Uiso   1.00
H209   H     0.11689   0.74996   0.71969   0.00000  Uiso   1.00
H210   H     0.06887   0.17272   1.06518   0.00000  Uiso   1.00
H211   H     0.13787   0.19529   0.99668   0.00000  Uiso   1.00
H212   H     0.05715   0.08167   1.00809   0.00000  Uiso   1.00
H213   H    -0.07772   0.21683   0.89321   0.00000  Uiso   1.00
H214   H     0.04039   0.22590   0.88261   0.00000  Uiso   1.00
H215   H     0.02633   0.28537   0.96337   0.00000  Uiso   1.00
H216   H     0.95045   0.00421   0.87765   0.00000  Uiso   1.00
H217   H     0.85949   0.02249   0.84978   0.00000  Uiso   1.00
H218   H     0.84243  -0.03745   0.91664   0.00000  Uiso   1.00
H219   H     0.24080   0.27683   0.24605   0.00000  Uiso   1.00
H220   H     0.28387   0.36887   0.19932   0.00000  Uiso   1.00
H221   H     0.22718   0.24785   0.15231   0.00000  Uiso   1.00
H222   H     0.15255   0.42394   0.15378   0.00000  Uiso   1.00
H223   H     0.02784   0.34785   0.14039   0.00000  Uiso   1.00
H224   H     0.09630   0.32240   0.08010   0.00000  Uiso   1.00
H225   H     0.19248   0.41543   0.30219   0.00000  Uiso   1.00
H226   H     0.11057   0.32248   0.32803   0.00000  Uiso   1.00
H227   H     0.06801   0.38624   0.29394   0.00000  Uiso   1.00
H228   H    -0.25221   0.45089   0.04956   0.00000  Uiso   1.00
H229   H    -0.32892   0.33168   0.02859   0.00000  Uiso   1.00
H230   H    -0.25001   0.38877  -0.02658   0.00000  Uiso   1.00
H231   H     0.23047   0.24878   0.44429   0.00000  Uiso   1.00
H232   H     0.12723   0.24320   0.40676   0.00000  Uiso   1.00
H233   H     0.23799   0.30592   0.37390   0.00000  Uiso   1.00
H234   H     0.38768   0.51678   0.49409   0.00000  Uiso   1.00
H235   H     0.34584   0.53308   0.41979   0.00000  Uiso   1.00
H236   H     0.27125   0.43060   0.45200   0.00000  Uiso   1.00
H237   H     0.03238   0.64353   0.57286   0.00000  Uiso   1.00
H238   H     0.12209   0.61924   0.54391   0.00000  Uiso   1.00
H239   H    -0.00592   0.53028   0.55820   0.00000  Uiso   1.00
H240   H    -0.02599   0.38921   0.03012   0.00000  Uiso   1.00
H241   H    -0.11492   0.34235  -0.04549   0.00000  Uiso   1.00
H242   H    -0.11740   0.27381   0.01220   0.00000  Uiso   1.00
H243   H     0.24548   0.61732   0.28319   0.00000  Uiso   1.00
H244   H     0.17404   0.54083   0.33500   0.00000  Uiso   1.00
H245   H     0.29011   0.55929   0.31599   0.00000  Uiso   1.00
H246   H     0.46405   0.79000   0.45402   0.00000  Uiso   1.00
H247   H     0.46929   0.75796   0.36183   0.00000  Uiso   1.00
H248   H     0.46721   0.69572   0.42018   0.00000  Uiso   1.00
H249   H     0.98234   0.92694   0.16598   0.00000  Uiso   1.00
H250   H     1.08024   0.99407   0.23298   0.00000  Uiso   1.00
H251   H     0.95184   0.90788   0.25045   0.00000  Uiso   1.00
H252   H     0.30465   0.81921   0.05470   0.00000  Uiso   1.00
H253   H     0.23426   0.74473  -0.03251   0.00000  Uiso   1.00
H254   H     0.17222   0.74470   0.03835   0.00000  Uiso   1.00
H255   H     0.39310   0.97083   0.96325   0.00000  Uiso   1.00
H256   H     0.29650   0.95978   0.90374   0.00000  Uiso   1.00
H257   H     0.32282   0.86914   0.90136   0.00000  Uiso   1.00
H258   H     0.05872   0.83448   0.49916   0.00000  Uiso   1.00
H259   H    -0.05988   0.76855   0.51601   0.00000  Uiso   1.00
H260   H     0.01817   0.88273   0.56930   0.00000  Uiso   1.00
H261   H     0.84433   0.73411   0.38590   0.00000  Uiso   1.00
H262   H     0.96427   0.76895   0.36033   0.00000  Uiso   1.00
H263   H     0.90366   0.81454   0.32948   0.00000  Uiso   1.00
H264   H     0.27565   0.85494   0.24996   0.00000  Uiso   1.00
H265   H     0.33506   0.89912   0.33063   0.00000  Uiso   1.00
H266   H     0.31978   0.97723   0.29975   0.00000  Uiso   1.00
H267   H    -0.19597   0.64896   0.89026   0.00000  Uiso   1.00
H268   H    -0.08704   0.68144   0.85639   0.00000  Uiso   1.00
H269   H    -0.18843   0.64412   0.79723   0.00000  Uiso   1.00
H270   H     0.08277   0.76106   0.91810   0.00000  Uiso   1.00
H271   H     0.10419   0.86640   0.91003   0.00000  Uiso   1.00
H272   H     0.05804   0.83574   0.98079   0.00000  Uiso   1.00
H273   H     0.78561   0.76151   0.73703   0.00000  Uiso   1.00
H274   H     0.84469   0.87311   0.78274   0.00000  Uiso   1.00
H275   H     0.73549   0.78731   0.80856   0.00000  Uiso   1.00
H276   H     0.42929   0.00314   0.11503   0.00000  Uiso   1.00
H277   H     0.42933   0.02758   0.20621   0.00000  Uiso   1.00
H278   H     0.33547  -0.08775   0.15962   0.00000  Uiso   1.00
H279   H     0.49012   0.82060   0.20863   0.00000  Uiso   1.00
H280   H     0.37737   0.79633   0.17721   0.00000  Uiso   1.00
H281   H     0.43870   0.87068   0.26441   0.00000  Uiso   1.00
H282   H     0.42641   0.20708   0.61858   0.00000  Uiso   1.00
H283   H     0.46762   0.24355   0.54649   0.00000  Uiso   1.00
H284   H     0.41665   0.12712   0.54764   0.00000  Uiso   1.00
H285   H     0.14432   0.07137   0.61779   0.00000  Uiso   1.00
H286   H     0.26376   0.08294   0.64728   0.00000  Uiso   1.00
H287   H     0.19128   0.00589   0.57221   0.00000  Uiso   1.00
H288   H     0.47903   0.04845   0.37527   0.00000  Uiso   1.00
H289   H     0.42180   0.09792   0.42258   0.00000  Uiso   1.00
H290   H     0.56073   0.14751   0.44224   0.00000  Uiso   1.00
H291   H     0.81148   0.17753   0.75229   0.00000  Uiso   1.00
H292   H     0.81454   0.10376   0.67926   0.00000  Uiso   1.00
H293   H     0.87973   0.11835   0.75525   0.00000  Uiso   1.00
H294   H     0.59134   1.06961   0.75773   0.00000  Uiso   1.00
H295   H     0.53623   0.95735   0.74069   0.00000  Uiso   1.00
H296   H     0.58157   1.00547   0.67041   0.00000  Uiso   1.00
H297   H     0.66634   0.89816   0.67681   0.00000  Uiso   1.00
H298   H     0.62745   0.86516   0.75735   0.00000  Uiso   1.00
H299   H     0.75797   0.91370   0.74375   0.00000  Uiso   1.00
H300   H     0.10688   0.01850   0.91532   0.00000  Uiso   1.00
H301   H     0.21563   0.12563   0.92879   0.00000  Uiso   1.00
H302   H     0.22129   0.02767   0.91032   0.00000  Uiso   1.00
H303   H     0.09902   0.10551   0.71956   0.00000  Uiso   1.00
H304   H     0.15706   0.17996   0.79932   0.00000  Uiso   1.00
H305   H     0.03985   0.07948   0.79005   0.00000  Uiso   1.00
H306   H     0.48371   0.23496   0.06105   0.00000  Uiso   1.00
H307   H     0.34833   0.20605   0.06689   0.00000  Uiso   1.00
H308   H     0.39426   0.14456   0.09435   0.00000  Uiso   1.00
H309   H     0.58242   0.26148   0.18987   0.00000  Uiso   1.00
H310   H     0.62719   0.37327   0.24018   0.00000  Uiso   1.00
H311   H     0.62715   0.35292   0.14262   0.00000  Uiso   1.00
H312   H     0.36066   0.39972   0.99821   0.00000  Uiso   1.00
H313   H     0.28199   0.38077   1.06490   0.00000  Uiso   1.00
H314   H     0.31021   0.29772   1.03869   0.00000  Uiso   1.00
H315   H     0.59430   0.50880   1.03216   0.00000  Uiso   1.00
H316   H     0.52291   0.38315   1.00256   0.00000  Uiso   1.00
H317   H     0.61597   0.44324   1.07941   0.00000  Uiso   1.00
H318   H     0.30037   0.29852   0.54839   0.00000  Uiso   1.00
H319   H     0.29311   0.28436   0.63389   0.00000  Uiso   1.00
H320   H     0.18548   0.22317   0.57294   0.00000  Uiso   1.00
H321   H     0.41611   0.29763   0.47124   0.00000  Uiso   1.00
H322   H     0.37916   0.28294   0.38333   0.00000  Uiso   1.00
H323   H     0.43124   0.38811   0.43510   0.00000  Uiso   1.00
H324   H     0.47856   0.58717   0.69829   0.00000  Uiso   1.00
H325   H     0.39909   0.50491   0.60934   0.00000  Uiso   1.00
H326   H     0.34606   0.52804   0.68425   0.00000  Uiso   1.00
H327   H     0.53358   0.79069   0.60081   0.00000  Uiso   1.00
H328   H     0.49455   0.68905   0.53535   0.00000  Uiso   1.00
H329   H     0.58000   0.72059   0.61342   0.00000  Uiso   1.00
H330   H     0.43049   0.78749   0.71698   0.00000  Uiso   1.00
H331   H     0.45153   0.72181   0.76354   0.00000  Uiso   1.00
H332   H     0.33463   0.68673   0.73291   0.00000  Uiso   1.00
H333   H     0.42874   0.46038   0.34992   0.00000  Uiso   1.00
H334   H     0.45090   0.47495   0.26179   0.00000  Uiso   1.00
H335   H     0.47897   0.56617   0.33259   0.00000  Uiso   1.00
H336   H     0.65308   0.66689   0.42943   0.00000  Uiso   1.00
H337   H     0.68411   0.59511   0.46191   0.00000  Uiso   1.00
H338   H     0.56506   0.57586   0.46692   0.00000  Uiso   1.00
H339   H     0.68442   0.63501   0.29290   0.00000  Uiso   1.00
H340   H     0.67409   0.53227   0.24206   0.00000  Uiso   1.00
H341   H     0.76304   0.59044   0.31588   0.00000  Uiso   1.00
H342   H     0.44744   0.09298   0.77805   0.00000  Uiso   1.00
H343   H     0.54187   0.21326   0.78715   0.00000  Uiso   1.00
H344   H     0.45151   0.14885   0.70812   0.00000  Uiso   1.00
H345   H     0.35120   0.27922   0.76664   0.00000  Uiso   1.00
H346   H     0.46948   0.33224   0.82172   0.00000  Uiso   1.00
H347   H     0.35967   0.30493   0.86152   0.00000  Uiso   1.00
H348   H     0.41802   0.12010   0.91415   0.00000  Uiso   1.00
H349   H     0.38830   0.20195   0.94030   0.00000  Uiso   1.00
H350   H     0.50267   0.23655   0.92077   0.00000  Uiso   1.00
H351   H     0.45505   0.64932   0.25114   0.00000  Uiso   1.00
H352   H     0.34644   0.55671   0.21241   0.00000  Uiso   1.00
H353   H     0.37372   0.66419   0.19785   0.00000  Uiso   1.00
H354   H     0.38222   0.69899  -0.06807   0.00000  Uiso   1.00
H355   H     0.37740   0.72578   0.02335   0.00000  Uiso   1.00
H356   H     0.27699   0.62057  -0.03713   0.00000  Uiso   1.00
H357   H     0.47954   0.90102   0.03269   0.00000  Uiso   1.00
H358   H     0.53114   0.84753   0.07120   0.00000  Uiso   1.00
H359   H     0.60347   0.96798   0.07115   0.00000  Uiso   1.00
H360   H     0.42131   0.49174   0.90312   0.00000  Uiso   1.00
H361   H     0.34830   0.52494   0.87132   0.00000  Uiso   1.00
H362   H     0.30072   0.45496   0.93851   0.00000  Uiso   1.00
H363   H     0.37948   0.85838   0.63385   0.00000  Uiso   1.00
H364   H     0.36444   0.79883   0.53920   0.00000  Uiso   1.00
H365   H     0.27865   0.74937   0.59822   0.00000  Uiso   1.00
H366   H     0.39477   0.92419   0.47821   0.00000  Uiso   1.00
H367   H     0.43020   1.00598   0.55600   0.00000  Uiso   1.00
H368   H     0.33997   0.98957   0.49816   0.00000  Uiso   1.00
H369   H     0.27876   0.96382   0.66120   0.00000  Uiso   1.00
H370   H     0.20301   0.84936   0.66431   0.00000  Uiso   1.00
H371   H     0.16399   0.90341   0.61498   0.00000  Uiso   1.00
H372   H     0.57339   0.90543   0.42425   0.00000  Uiso   1.00
H373   H     0.56812   0.93389   0.34469   0.00000  Uiso   1.00
H374   H     0.66931   1.00714   0.41017   0.00000  Uiso   1.00
H375   H     0.60097   0.72350   0.34000   0.00000  Uiso   1.00
H376   H     0.63964   0.79383   0.42328   0.00000  Uiso   1.00
H377   H     0.73309   0.78801   0.38242   0.00000  Uiso   1.00
H378   H     0.83356   0.97750   0.29867   0.00000  Uiso   1.00
H379   H     0.84743   0.92985   0.36854   0.00000  Uiso   1.00
H380   H     0.82093   1.02176   0.38910   0.00000  Uiso   1.00
H381   H     0.82286   1.26034   0.59296   0.00000  Uiso   1.00
H382   H     0.79147   1.14821   0.57422   0.00000  Uiso   1.00
H383   H     0.73962   1.18180   0.51970   0.00000  Uiso   1.00
H384   H     0.97487   1.17504   0.57909   0.00000  Uiso   1.00
H385   H     1.03330   1.17490   0.49990   0.00000  Uiso   1.00
H386   H     0.91878   1.08305   0.50390   0.00000  Uiso   1.00
H387   H     0.59821   0.14475   0.92854   0.00000  Uiso   1.00
H388   H     0.71186   0.19754   0.88613   0.00000  Uiso   1.00
H389   H     0.71679   0.19192   0.97481   0.00000  Uiso   1.00
H390   H     0.49446  -0.01742   0.87259   0.00000  Uiso   1.00
H391   H     0.51160  -0.06084   0.94195   0.00000  Uiso   1.00
H392   H     0.52963  -0.10142   0.85403   0.00000  Uiso   1.00
H393   H     0.97454   0.31457   0.72495   0.00000  Uiso   1.00
H394   H     0.89448   0.35169   0.71414   0.00000  Uiso   1.00
H395   H     0.96877   0.39199   0.80059   0.00000  Uiso   1.00
H396   H     1.17347   0.49511   0.80373   0.00000  Uiso   1.00
H397   H     1.23608   0.54769   0.74135   0.00000  Uiso   1.00
H398   H     1.18291   0.42435   0.73219   0.00000  Uiso   1.00
H399   H     1.04379   0.57576   0.78510   0.00000  Uiso   1.00
H400   H     1.01366   0.57327   0.69059   0.00000  Uiso   1.00
H401   H     1.13742   0.62716   0.73823   0.00000  Uiso   1.00
H402   H     0.57866   0.08355   0.04341   0.00000  Uiso   1.00
H403   H     0.59320   0.19346   0.05105   0.00000  Uiso   1.00
H404   H     0.54912   0.13273   0.11742   0.00000  Uiso   1.00
H405   H     0.75553   0.37504   0.45952   0.00000  Uiso   1.00
H406   H     0.83607   0.34391   0.48593   0.00000  Uiso   1.00
H407   H     0.73523   0.26885   0.41751   0.00000  Uiso   1.00
H408   H     0.75758   0.60541   0.64353   0.00000  Uiso   1.00
H409   H     0.78367   0.60951   0.54799   0.00000  Uiso   1.00
H410   H     0.82393   0.56366   0.60043   0.00000  Uiso   1.00
H411   H     0.47717   0.39716   0.59036   0.00000  Uiso   1.00
H412   H     0.51833   0.49389   0.55450   0.00000  Uiso   1.00
H413   H     0.55576   0.50377   0.64129   0.00000  Uiso   1.00
H414   H     0.90782   0.58669   0.28654   0.00000  Uiso   1.00
H415   H     0.81242   0.50866   0.22431   0.00000  Uiso   1.00
H416   H     0.87097   0.61664   0.21017   0.00000  Uiso   1.00
H417   H     0.78738   0.44437   0.33321   0.00000  Uiso   1.00
H418   H     0.71671   0.32327   0.29745   0.00000  Uiso   1.00
H419   H     0.81814   0.39557   0.25724   0.00000  Uiso   1.00
H420   H     1.03006   0.52658   0.29836   0.00000  Uiso   1.00
H421   H     1.08234   0.50721   0.22368   0.00000  Uiso   1.00
H422   H     0.96213   0.42504   0.22799   0.00000  Uiso   1.00
H423   H     1.12060   0.70014   0.21591   0.00000  Uiso   1.00
H424   H     1.05283   0.66741   0.12761   0.00000  Uiso   1.00
H425   H     1.13389   0.63039   0.14126   0.00000  Uiso   1.00
H426   H     0.83218   0.52818   0.46593   0.00000  Uiso   1.00
H427   H     0.87615   0.58972   0.40245   0.00000  Uiso   1.00
H428   H     0.92175   0.64572   0.48255   0.00000  Uiso   1.00
H429   H     0.80067   0.52437   0.72162   0.00000  Uiso   1.00
H430   H     0.85543   0.46681   0.67381   0.00000  Uiso   1.00
H431   H     0.80231   0.44469   0.75401   0.00000  Uiso   1.00
H432   H     0.66863   0.24676   0.59063   0.00000  Uiso   1.00
H433   H     0.58167   0.21619   0.65710   0.00000  Uiso   1.00
H434   H     0.71320   0.25992   0.67707   0.00000  Uiso   1.00
H435   H     0.53056   0.31715   0.71508   0.00000  Uiso   1.00
H436   H     0.57456   0.43063   0.71410   0.00000  Uiso   1.00
H437   H     0.62143   0.39914   0.78075   0.00000  Uiso   1.00
H438   H     0.73198   0.65852   0.07314   0.00000  Uiso   1.00
H439   H     0.77329   0.60063   0.12064   0.00000  Uiso   1.00
H440   H     0.76610   0.58283   0.03012   0.00000  Uiso   1.00
H441   H     1.02506   0.68682   0.01471   0.00000  Uiso   1.00
H442   H     0.91343   0.64372  -0.03965   0.00000  Uiso   1.00
H443   H     0.91756   0.59160   0.02598   0.00000  Uiso   1.00
H444   H     0.80755   0.79554   0.17362   0.00000  Uiso   1.00
H445   H     0.71448   0.69154   0.19339   0.00000  Uiso   1.00
H446   H     0.78270   0.79638   0.26504   0.00000  Uiso   1.00
H447   H     0.56252   0.62716   0.81387   0.00000  Uiso   1.00
H448   H     0.58230   0.56535   0.86887   0.00000  Uiso   1.00
H449   H     0.67863   0.65511   0.83913   0.00000  Uiso   1.00
H450   H     0.62585   0.85288   0.97319   0.00000  Uiso   1.00
H451   H     0.56121   0.79043   0.89283   0.00000  Uiso   1.00
H452   H     0.69387   0.85406   0.89593   0.00000  Uiso   1.00
H453   H     0.75292   0.96874   0.50205   0.00000  Uiso   1.00
H454   H     0.74455   0.98009   0.59465   0.00000  Uiso   1.00
H455   H     0.66423   0.87381   0.53634   0.00000  Uiso   1.00
H456   H     0.71085   0.75141   0.54329   0.00000  Uiso   1.00
H457   H     0.75375   0.80105   0.63311   0.00000  Uiso   1.00
H458   H     0.82180   0.76417   0.57711   0.00000  Uiso   1.00
H459   H     0.96996   1.04715   0.60305   0.00000  Uiso   1.00
H460   H     0.96967   0.96337   0.63544   0.00000  Uiso   1.00
H461   H     0.88668   0.99688   0.67019   0.00000  Uiso   1.00
loop_
_geom_bond_atom_site_label_1
_geom_bond_atom_site_label_2
_geom_bond_distance
_geom_bond_site_symmetry_2
_ccdc_geom_bond_type
Si1    C52     1.927   .     S
Si1    O94     1.658   .     S
Si1    O74     1.605   1_545 S
Si1    O77     1.614   1_545 S
Si2    O54     1.667   .     S
Si2    O61     1.634   .     S
Si2    O141    1.622   1_455 S
Si2    O149    1.687   1_455 S
Si3    O55     1.598   .     S
Si3    O96     1.551   .     S
Si3    O82     1.603   1_545 S
Si3    O86     1.591   1_545 S
Si4    C53     1.887   .     S
Si4    O66     1.608   .     S
Si4    O146    1.588   1_455 S
Si4    O156    1.602   1_455 S
Si5    O54     1.673   .     S
Si5    O55     1.611   .     S
Si5    C67     1.893   .     S
Si5    O95     1.639   .     S
Si6    C56     1.848   .     S
Si6    O104    1.605   .     S
Si6    C57     1.903   1_545 S
Si6    O90     1.634   1_545 S
Si7    C58     1.851   .     S
Si7    C59     1.842   .     S
Si7    C60     1.856   1_455 S
Si7    O144    1.578   1_455 S
Si8    O61     1.578   .     S
Si8    C62     1.887   .     S
Si8    C63     1.865   .     S
Si8    C64     1.838   .     S
Si9    C65     1.811   .     S
Si9    C70     1.866   .     S
Si9    O163    1.601   1_455 S
Si9    O170    1.607   1_455 S
Si10   O66     1.607   .     S
Si10   C68     1.855   .     S
Si10   O72     1.652   .     S
Si10   O116    1.609   .     S
Si11   C69     1.871   .     S
Si11   O79     1.590   .     S
Si11   O166    1.610   1_455 S
Si11   C175    1.823   1_455 S
Si12   C71     1.810   .     S
Si12   O72     1.576   .     S
Si12   C73     1.883   .     S
Si12   O80     1.598   .     S
Si13   O74     1.603   .     S
Si13   O84     1.605   .     S
Si13   C75     1.795   1_455 S
Si13   O182    1.566   1_455 S
Si14   C76     1.834   .     S
Si14   O77     1.552   .     S
Si14   C78     1.866   1_554 S
Si14   C89     1.878   1_554 S
Si15   O79     1.625   .     S
Si15   O80     1.626   .     S
Si15   O85     1.562   .     S
Si15   O134    1.592   .     S
Si16   C81     1.816   .     S
Si16   O82     1.610   .     S
Si16   C83     1.816   1_455 S
Si16   O194    1.631   1_455 S
Si17   O84     1.635   .     S
Si17   O85     1.606   .     S
Si17   O86     1.579   .     S
Si17   C87     1.912   .     S
Si18   C88     1.795   .     S
Si18   O90     1.608   .     S
Si18   C91     1.851   1_455 S
Si18   O187    1.618   1_455 S
Si19   C92     1.806   .     S
Si19   O142    1.569   .     S
Si19   C93     1.896   1_545 S
Si19   C132    1.872   1_545 S
Si20   O94     1.607   .     S
Si20   O95     1.618   .     S
Si20   O99     1.651   .     S
Si20   O107    1.619   .     S
Si21   O96     1.588   .     S
Si21   C97     1.948   .     S
Si21   C98     1.900   .     S
Si21   C113    1.818   .     S
Si22   O99     1.619   .     S
Si22   C100    1.808   .     S
Si22   O115    1.635   .     S
Si22   O143    1.587   .     S
Si23   C101    1.861   .     S
Si23   O152    1.558   .     S
Si23   C102    1.891   1_545 S
Si23   C103    1.789   1_545 S
Si24   O104    1.602   .     S
Si24   C105    1.834   .     S
Si24   C106    1.890   .     S
Si24   O124    1.614   .     S
Si25   O107    1.608   .     S
Si25   C108    1.862   .     S
Si25   C109    1.839   .     S
Si25   O110    1.643   .     S
Si26   O110    1.578   .     S
Si26   O129    1.604   .     S
Si26   C111    1.953   1_554 S
Si26   C112    1.843   1_554 S
Si27   C114    1.812   .     S
Si27   O115    1.621   .     S
Si27   O121    1.578   .     S
Si27   O167    1.576   .     S
Si28   O116    1.573   .     S
Si28   C117    1.859   .     S
Si28   C118    1.899   .     S
Si28   C119    1.797   .     S
Si29   C120    1.841   .     S
Si29   O121    1.581   .     S
Si29   C122    1.859   .     S
Si29   C123    1.889   .     S
Si30   O124    1.547   .     S
Si30   C125    1.782   .     S
Si30   C126    1.912   .     S
Si30   C127    1.879   .     S
Si31   C128    1.864   .     S
Si31   O129    1.621   .     S
Si31   O130    1.605   .     S
Si31   O183    1.633   .     S
Si32   O130    1.530   .     S
Si32   C131    1.880   .     S
Si32   C133    1.862   1_554 S
Si32   O193    1.591   1_554 S
Si33   O134    1.607   .     S
Si33   C135    1.802   .     S
Si33   C136    1.829   .     S
Si33   C137    1.848   .     S
Si34   C138    1.848   .     S
Si34   C139    1.914   .     S
Si34   C140    1.897   .     S
Si34   O186    1.578   .     S
Si35   O141    1.609   .     S
Si35   O145    1.596   .     S
Si35   O185    1.651   1_545 S
Si35   O189    1.574   1_545 S
Si36   O142    1.576   .     S
Si36   O143    1.667   .     S
Si36   O150    1.634   .     S
Si36   O160    1.604   .     S
Si37   O145    1.618   .     S
Si37   O161    1.594   .     S
Si37   O144    1.585   1_554 S
Si37   O153    1.588   1_554 S
Si38   O146    1.626   .     S
Si38   O151    1.591   .     S
Si38   C147    1.916   1_545 S
Si38   C148    1.919   1_545 S
Si39   O149    1.622   .     S
Si39   O150    1.653   .     S
Si39   O151    1.625   .     S
Si39   O165    1.561   .     S
Si40   O152    1.600   .     S
Si40   O153    1.598   .     S
Si40   C154    1.781   .     S
Si40   C155    1.812   .     S
Si41   O156    1.614   .     S
Si41   C157    1.964   .     S
Si41   C158    1.860   .     S
Si41   C159    1.888   .     S
Si42   O160    1.629   .     S
Si42   O161    1.587   .     S
Si42   C162    1.881   .     S
Si42   O163    1.561   .     S
Si43   C164    1.867   .     S
Si43   O165    1.623   .     S
Si43   O166    1.587   .     S
Si43   C172    1.901   .     S
Si44   O167    1.585   .     S
Si44   C168    1.870   .     S
Si44   C169    1.861   .     S
Si44   O177    1.571   .     S
Si45   O170    1.601   .     S
Si45   C171    1.887   .     S
Si45   C173    1.887   .     S
Si45   C174    1.927   .     S
Si46   C176    1.858   .     S
Si46   O177    1.608   .     S
Si46   C178    1.854   .     S
Si46   C179    1.782   .     S
Si47   C180    1.805   .     S
Si47   C181    1.821   .     S
Si47   O182    1.604   .     S
Si47   O188    1.586   .     S
Si48   O183    1.628   .     S
Si48   C184    1.880   .     S
Si48   O185    1.629   .     S
Si48   O186    1.616   .     S
Si49   O188    1.592   .     S
Si49   O189    1.594   .     S
Si49   O187    1.652   1_554 S
Si49   O191    1.676   1_554 S
Si50   C190    1.939   .     S
Si50   O191    1.567   .     S
Si50   C192    1.922   .     S
Si50   O193    1.575   .     S
Si51   O194    1.564   .     S
Si51   C195    1.857   .     S
Si51   C196    1.836   .     S
Si51   C197    1.853   .     S
C52    H198    1.103   .     S
C52    H199    1.129   .     S
C52    H200    1.133   .     S
C53    H201    1.114   .     S
C53    H202    1.122   .     S
C53    H203    1.122   .     S
C56    H204    1.084   .     S
C56    H205    1.123   .     S
C56    H206    1.125   .     S
C57    H207    1.089   .     S
C57    H208    1.120   .     S
C57    H209    1.090   .     S
C57    Si6     1.903   1_565 S
C58    H210    1.055   .     S
C58    H211    1.080   .     S
C58    H212    1.146   .     S
C59    H213    1.127   .     S
C59    H214    1.136   .     S
C59    H215    1.114   .     S
C60    H216    1.115   .     S
C60    H217    1.134   .     S
C60    H218    1.094   .     S
C60    Si7     1.856   1_655 S
C62    H219    1.168   .     S
C62    H220    1.121   .     S
C62    H221    1.136   .     S
C63    H222    1.153   .     S
C63    H223    1.075   .     S
C63    H224    1.085   .     S
C64    H225    1.124   .     S
C64    H226    1.108   .     S
C64    H227    1.104   .     S
C65    H228    1.083   .     S
C65    H229    1.087   .     S
C65    H230    1.054   .     S
C67    H231    1.102   .     S
C67    H232    1.075   .     S
C67    H233    1.135   .     S
C68    H234    1.078   .     S
C68    H235    1.113   .     S
C68    H236    1.121   .     S
C69    H237    1.107   .     S
C69    H238    1.095   .     S
C69    H239    1.113   .     S
C70    H240    1.072   .     S
C70    H241    1.142   .     S
C70    H242    1.100   .     S
C71    H243    1.065   .     S
C71    H244    1.128   .     S
C71    H245    1.049   .     S
C73    H246    1.035   .     S
C73    H247    1.099   .     S
C73    H248    1.147   .     S
O74    Si1     1.605   1_565 S
C75    H249    1.039   .     S
C75    H250    1.178   .     S
C75    H251    1.137   .     S
C75    Si13    1.795   1_655 S
C76    H252    1.127   .     S
C76    H253    1.107   .     S
C76    H254    1.085   .     S
O77    Si1     1.614   1_565 S
C78    H255    1.130   .     S
C78    H256    1.127   .     S
C78    H257    1.121   .     S
C78    Si14    1.866   1_556 S
C81    H258    1.097   .     S
C81    H259    1.098   .     S
C81    H260    1.067   .     S
O82    Si3     1.603   1_565 S
C83    H261    1.117   .     S
C83    H262    1.072   .     S
C83    H263    1.150   .     S
C83    Si16    1.816   1_655 S
O86    Si3     1.591   1_565 S
C87    H264    1.098   .     S
C87    H265    1.102   .     S
C87    H266    1.111   .     S
C88    H267    1.093   .     S
C88    H268    1.092   .     S
C88    H269    1.079   .     S
C89    H270    1.134   .     S
C89    H271    1.095   .     S
C89    H272    1.073   .     S
C89    Si14    1.878   1_556 S
O90    Si6     1.634   1_565 S
C91    H273    1.076   .     S
C91    H274    1.119   .     S
C91    H275    1.101   .     S
C91    Si18    1.851   1_655 S
C92    H276    1.105   .     S
C92    H277    1.153   .     S
C92    H278    1.128   .     S
C93    H279    1.080   .     S
C93    H280    1.120   .     S
C93    H281    1.108   .     S
C93    Si19    1.896   1_565 S
C97    H282    1.067   .     S
C97    H283    1.115   .     S
C97    H284    1.112   .     S
C98    H285    1.088   .     S
C98    H286    1.134   .     S
C98    H287    1.058   .     S
C100   H288    1.107   .     S
C100   H289    1.157   .     S
C100   H290    1.125   .     S
C101   H291    1.119   .     S
C101   H292    1.090   .     S
C101   H293    1.120   .     S
C102   H294    1.085   .     S
C102   H295    1.054   .     S
C102   H296    1.120   .     S
C102   Si23    1.891   1_565 S
C103   H297    1.095   .     S
C103   H298    1.147   .     S
C103   H299    1.113   .     S
C103   Si23    1.789   1_565 S
C105   H300    1.115   .     S
C105   H301    1.094   .     S
C105   H302    1.112   .     S
C106   H303    1.126   .     S
C106   H304    1.078   .     S
C106   H305    1.117   .     S
C108   H306    1.094   .     S
C108   H307    1.145   .     S
C108   H308    1.089   .     S
C109   H309    1.103   .     S
C109   H310    1.108   .     S
C109   H311    1.151   .     S
C111   H312    1.107   .     S
C111   H313    1.142   .     S
C111   H314    1.080   .     S
C111   Si26    1.953   1_556 S
C112   H315    1.101   .     S
C112   H316    1.119   .     S
C112   H317    1.114   .     S
C112   Si26    1.843   1_556 S
C113   H318    1.133   .     S
C113   H319    1.078   .     S
C113   H320    1.094   .     S
C114   H321    1.094   .     S
C114   H322    1.040   .     S
C114   H323    1.117   .     S
C117   H324    1.143   .     S
C117   H325    1.158   .     S
C117   H326    1.106   .     S
C118   H327    1.147   .     S
C118   H328    1.118   .     S
C118   H329    1.099   .     S
C119   H330    1.111   .     S
C119   H331    1.094   .     S
C119   H332    1.054   .     S
C120   H333    1.089   .     S
C120   H334    1.064   .     S
C120   H335    1.092   .     S
C122   H336    1.109   .     S
C122   H337    1.121   .     S
C122   H338    1.115   .     S
C123   H339    1.123   .     S
C123   H340    1.091   .     S
C123   H341    1.137   .     S
C125   H342    1.147   .     S
C125   H343    1.098   .     S
C125   H344    1.127   .     S
C126   H345    1.148   .     S
C126   H346    1.062   .     S
C126   H347    1.123   .     S
C127   H348    1.096   .     S
C127   H349    1.090   .     S
C127   H350    1.090   .     S
C128   H351    1.115   .     S
C128   H352    1.111   .     S
C128   H353    1.074   .     S
C131   H354    1.102   .     S
C131   H355    1.120   .     S
C131   H356    1.146   .     S
C132   H357    1.123   .     S
C132   H358    1.099   .     S
C132   H359    1.103   .     S
C132   Si19    1.872   1_565 S
C133   H360    1.097   .     S
C133   H361    1.118   .     S
C133   H362    1.146   .     S
C133   Si32    1.862   1_556 S
C135   H363    1.156   .     S
C135   H364    1.115   .     S
C135   H365    1.118   .     S
C136   H366    1.132   .     S
C136   H367    1.081   .     S
C136   H368    1.059   .     S
C137   H369    1.044   .     S
C137   H370    1.101   .     S
C137   H371    1.070   .     S
C138   H372    1.100   .     S
C138   H373    1.089   .     S
C138   H374    1.086   .     S
C139   H375    1.080   .     S
C139   H376    1.054   .     S
C139   H377    1.138   .     S
C140   H378    1.123   .     S
C140   H379    1.140   .     S
C140   H380    1.117   .     S
O141   Si2     1.622   1_655 S
O144   Si7     1.578   1_655 S
O144   Si37    1.585   1_556 S
O146   Si4     1.588   1_655 S
C147   H381    1.117   .     S
C147   H382    1.140   .     S
C147   H383    1.083   .     S
C147   Si38    1.916   1_565 S
C148   H384    1.091   .     S
C148   H385    1.114   .     S
C148   H386    1.139   .     S
C148   Si38    1.919   1_565 S
O149   Si2     1.687   1_655 S
O153   Si37    1.588   1_556 S
C154   H387    1.196   .     S
C154   H388    1.115   .     S
C154   H389    1.096   .     S
C155   H390    1.109   .     S
C155   H391    1.136   .     S
C155   H392    1.098   .     S
O156   Si4     1.602   1_655 S
C157   H393    1.097   .     S
C157   H394    1.104   .     S
C157   H395    1.151   .     S
C158   H396    1.100   .     S
C158   H397    1.075   .     S
C158   H398    1.072   .     S
C159   H399    1.067   .     S
C159   H400    1.173   .     S
C159   H401    1.098   .     S
C162   H402    1.085   .     S
C162   H403    1.139   .     S
C162   H404    1.082   .     S
O163   Si9     1.601   1_655 S
C164   H405    1.115   .     S
C164   H406    1.076   .     S
C164   H407    1.085   .     S
O166   Si11    1.610   1_655 S
C168   H408    1.107   .     S
C168   H409    1.158   .     S
C168   H410    1.133   .     S
C169   H411    1.098   .     S
C169   H412    1.108   .     S
C169   H413    1.062   .     S
O170   Si9     1.607   1_655 S
C171   H414    1.086   .     S
C171   H415    1.103   .     S
C171   H416    1.098   .     S
C172   H417    1.128   .     S
C172   H418    1.097   .     S
C172   H419    1.130   .     S
C173   H420    1.153   .     S
C173   H421    1.085   .     S
C173   H422    1.088   .     S
C174   H423    1.141   .     S
C174   H424    1.087   .     S
C174   H425    1.071   .     S
C175   H426    1.116   .     S
C175   H427    1.089   .     S
C175   H428    1.062   .     S
C175   Si11    1.823   1_655 S
C176   H429    1.126   .     S
C176   H430    1.076   .     S
C176   H431    1.081   .     S
C178   H432    1.109   .     S
C178   H433    1.105   .     S
C178   H434    1.103   .     S
C179   H435    1.093   .     S
C179   H436    1.106   .     S
C179   H437    1.121   .     S
C180   H438    1.144   .     S
C180   H439    1.083   .     S
C180   H440    1.060   .     S
C181   H441    1.119   .     S
C181   H442    1.091   .     S
C181   H443    1.086   .     S
O182   Si13    1.566   1_655 S
C184   H444    1.102   .     S
C184   H445    1.105   .     S
C184   H446    1.111   .     S
O185   Si35    1.651   1_565 S
O187   Si18    1.618   1_655 S
O187   Si49    1.652   1_556 S
O189   Si35    1.574   1_565 S
C190   H447    1.136   .     S
C190   H448    1.103   .     S
C190   H449    1.093   .     S
O191   Si49    1.676   1_556 S
C192   H450    1.114   .     S
C192   H451    1.071   .     S
C192   H452    1.125   .     S
O193   Si32    1.591   1_556 S
O194   Si16    1.631   1_655 S
C195   H453    1.131   .     S
C195   H454    1.109   .     S
C195   H455    1.143   .     S
C196   H456    1.086   .     S
C196   H457    1.100   .     S
C196   H458    1.122   .     S
C197   H459    1.111   .     S
C197   H460    1.080   .     S
C197   H461    1.102   .     S
