data_333-9-11-16-15-30-13
_audit_creation_date              2025-03-07
_audit_creation_method            'Materials Studio'
_symmetry_space_group_name_H-M    'P1'
_symmetry_Int_Tables_number       1
_symmetry_cell_setting            triclinic
loop_
_symmetry_equiv_pos_as_xyz
  x,y,z
_cell_length_a                    18.8186
_cell_length_b                    16.8448
_cell_length_c                    20.0669
_cell_angle_alpha                 87.6273
_cell_angle_beta                  88.6236
_cell_angle_gamma                 125.1484
loop_
_atom_site_label
_atom_site_type_symbol
_atom_site_fract_x
_atom_site_fract_y
_atom_site_fract_z
_atom_site_U_iso_or_equiv
_atom_site_adp_type
_atom_site_occupancy
Si1    Si   -0.10146   0.16013   0.19934   0.00000  Uiso   1.00
Si2    Si    0.09364   0.15077  -0.01361   0.00000  Uiso   1.00
Si3    Si   -0.08744  -0.19796   0.53141   0.00000  Uiso   1.00
Si4    Si    0.23144   0.06617   0.77831   0.00000  Uiso   1.00
Si5    Si   -0.05330   0.15156   0.91798   0.00000  Uiso   1.00
Si6    Si    0.13039   0.14164   0.72254   0.00000  Uiso   1.00
Si7    Si   -0.00649   0.49767   0.14420   0.00000  Uiso   1.00
Si8    Si    0.08935   0.30935   0.34849   0.00000  Uiso   1.00
Si9    Si    0.09681   0.47285   0.25986   0.00000  Uiso   1.00
Si10   Si    0.07718   0.25634   0.79353   0.00000  Uiso   1.00
Si11   Si    0.08006   0.55342   0.90510   0.00000  Uiso   1.00
Si12   Si    0.15328   0.70381   0.09050   0.00000  Uiso   1.00
Si13   Si    0.21747   0.84143  -0.03455   0.00000  Uiso   1.00
Si14   Si    0.11444   0.57569   0.38979   0.00000  Uiso   1.00
Si15   Si   -0.11362   0.79888   0.38179   0.00000  Uiso   1.00
Si16   Si    0.30895   0.71178   0.41801   0.00000  Uiso   1.00
Si17   Si    0.25211   0.70322   0.82957   0.00000  Uiso   1.00
Si18   Si    0.12341   0.86634   0.85643   0.00000  Uiso   1.00
Si19   Si    0.51106   0.00692   0.11472   0.00000  Uiso   1.00
Si20   Si    0.48180   0.37777   0.35620   0.00000  Uiso   1.00
Si21   Si    0.61666   0.01683   0.43077   0.00000  Uiso   1.00
Si22   Si    0.52497  -0.04207   0.81048   0.00000  Uiso   1.00
Si23   Si    0.38209   0.20545   0.86215   0.00000  Uiso   1.00
Si24   Si    0.53128   0.08317   0.68954   0.00000  Uiso   1.00
Si25   Si    0.54067   0.43501   0.20771   0.00000  Uiso   1.00
Si26   Si    0.27098   0.54011   0.19164   0.00000  Uiso   1.00
Si27   Si    0.49074   0.53850   0.11088   0.00000  Uiso   1.00
Si28   Si    0.45518   0.70109   0.13489   0.00000  Uiso   1.00
Si29   Si    0.48375   0.84392   0.02639   0.00000  Uiso   1.00
Si30   Si    0.04639   0.48003   0.53372   0.00000  Uiso   1.00
Si31   Si    0.63522   0.89399   0.32935   0.00000  Uiso   1.00
Si32   Si    0.37853   0.85214   0.92051   0.00000  Uiso   1.00
Si33   Si    0.52272   0.80669   0.72465   0.00000  Uiso   1.00
Si34   Si    0.77297   0.03322   0.09545   0.00000  Uiso   1.00
Si35   Si    0.67412   0.18477   0.16547   0.00000  Uiso   1.00
Si36   Si    0.81020   0.17570  -0.02053   0.00000  Uiso   1.00
Si37   Si    0.78769  -0.01522   0.85161   0.00000  Uiso   1.00
Si38   Si    0.66688   0.13103   0.87879   0.00000  Uiso   1.00
Si39   Si    0.83064   0.32576   0.06914   0.00000  Uiso   1.00
Si40   Si    0.73663   0.56343   0.17632   0.00000  Uiso   1.00
Si41   Si    0.80632   0.45602   0.35945   0.00000  Uiso   1.00
Si42   Si    0.88683   0.55848   0.22321   0.00000  Uiso   1.00
Si43   Si    0.76992   0.31961   0.79662   0.00000  Uiso   1.00
Si44   Si    0.75298   0.43967   0.68626   0.00000  Uiso   1.00
Si45   Si    0.82388   0.66470   0.03727   0.00000  Uiso   1.00
Si46   Si    0.63201   0.86159   0.18294   0.00000  Uiso   1.00
Si47   Si    0.98566   0.77987   0.26159   0.00000  Uiso   1.00
Si48   Si    0.69860   0.86568   0.65320   0.00000  Uiso   1.00
Si49   Si    1.17072   0.92288   0.29751   0.00000  Uiso   1.00
Si50   Si    0.62349   0.85246   0.93858   0.00000  Uiso   1.00
Si51   Si    0.78526   0.83242   0.77106   0.00000  Uiso   1.00
C52    C    -0.06994   0.08342   0.23902   0.00000  Uiso   1.00
C53    C    -0.00850   0.24907   0.14439   0.00000  Uiso   1.00
C54    C     0.87227   0.22386   0.25765   0.00000  Uiso   1.00
C55    C     0.06995   0.06699   0.06408   0.00000  Uiso   1.00
C56    C     0.17385   0.27854   0.00208   0.00000  Uiso   1.00
C57    C    -0.08934  -0.09004   0.55045   0.00000  Uiso   1.00
C58    C    -0.19503  -0.31349   0.56280   0.00000  Uiso   1.00
C59    C     0.28195   1.05395   0.70111   0.00000  Uiso   1.00
O60    O     0.00530   0.14096   0.96922   0.00000  Uiso   1.00
C61    C     0.05700   0.07858   0.65586   0.00000  Uiso   1.00
O62    O     0.15303   0.07162   0.76113   0.00000  Uiso   1.00
C63    C     0.23826   0.24954   0.68303   0.00000  Uiso   1.00
C64    C    -0.01049   0.23438   0.40467   0.00000  Uiso   1.00
C65    C     0.12021   0.23228   0.31262   0.00000  Uiso   1.00
C66    C     0.17294   0.38922   0.40395   0.00000  Uiso   1.00
O67    O     0.03129   0.45807   0.20085   0.00000  Uiso   1.00
O68    O     0.07554   0.36635   0.28993   0.00000  Uiso   1.00
O69    O     0.00775   0.22467   0.85238   0.00000  Uiso   1.00
O70    O     0.08862   0.17291   0.77785   0.00000  Uiso   1.00
C71    C     0.04062   0.28348   0.71779   0.00000  Uiso   1.00
C72    C     0.18517   0.36750   0.81453   0.00000  Uiso   1.00
C73    C     0.12981   0.51940   0.97102   0.00000  Uiso   1.00
C74    C     1.00981   0.58423   0.94449   0.00000  Uiso   1.00
O75    O     0.07061   0.59334   0.09955   0.00000  Uiso   1.00
C76    C     0.24770   0.71448   0.12019   0.00000  Uiso   1.00
C77    C     0.13353   0.77698   0.14686   0.00000  Uiso   1.00
O78    O     0.17101   0.74329   0.01488   0.00000  Uiso   1.00
C79    C     0.21810   0.93297   0.01224   0.00000  Uiso   1.00
C80    C     0.08134   0.66230   0.39164   0.00000  Uiso   1.00
O81    O     0.07857   0.51821   0.32210   0.00000  Uiso   1.00
C82    C    -0.23018   0.73994   0.39589   0.00000  Uiso   1.00
O83    O    -0.07808   0.79805   0.45251   0.00000  Uiso   1.00
C84    C     0.30087   0.78534   0.47855   0.00000  Uiso   1.00
O85    O     0.21861   0.64279   0.38699   0.00000  Uiso   1.00
C86    C     0.34979   0.64188   0.45912   0.00000  Uiso   1.00
C87    C     0.00502   0.80914   0.57018   0.00000  Uiso   1.00
C88    C     0.39060   0.79550   0.34539   0.00000  Uiso   1.00
O89    O     0.15362   0.64345   0.85968   0.00000  Uiso   1.00
C90    C     0.26059   0.61325   0.78935   0.00000  Uiso   1.00
C91    C     0.27311   0.80000   0.76774   0.00000  Uiso   1.00
O92    O     0.16281   0.82432   0.90205   0.00000  Uiso   1.00
O93    O     0.20233   0.97923   0.82932   0.00000  Uiso   1.00
C94    C     1.03109   0.86380   0.89794   0.00000  Uiso   1.00
C95    C     1.07319   0.79241   0.77928   0.00000  Uiso   1.00
C96    C     0.44615   0.05010   0.08184   0.00000  Uiso   1.00
C97    C     0.45836   0.94359   0.20049   0.00000  Uiso   1.00
C98    C     0.54151   0.44270   0.43059   0.00000  Uiso   1.00
C99    C     0.37814   0.36900   0.35715   0.00000  Uiso   1.00
C100   C     0.45651   0.25270   0.36070   0.00000  Uiso   1.00
C101   C     0.54319   0.06000   0.42508   0.00000  Uiso   1.00
C102   C     0.73095   0.12366   0.44017   0.00000  Uiso   1.00
O103   O     0.29995   0.15914   0.81438   0.00000  Uiso   1.00
C104   C     0.40935   0.11701   0.88402   0.00000  Uiso   1.00
C105   C     0.47824   0.31488   0.81672   0.00000  Uiso   1.00
C106   C     0.37365   0.24605   0.94385   0.00000  Uiso   1.00
C107   C     0.13253   0.11162   0.91833   0.00000  Uiso   1.00
C108   C     0.45180   0.01023   0.62282   0.00000  Uiso   1.00
O109   O     0.50241   0.00749   0.75279   0.00000  Uiso   1.00
C110   C     0.52511   0.18124   0.70955   0.00000  Uiso   1.00
C111   C     0.64348   0.13656   0.65417   0.00000  Uiso   1.00
O112   O     0.53261   0.43158   0.28723   0.00000  Uiso   1.00
C113   C     0.45251   0.30465   0.18567   0.00000  Uiso   1.00
C114   C     0.23360   0.48021   0.11336   0.00000  Uiso   1.00
C115   C     0.29972   0.47381   0.24832   0.00000  Uiso   1.00
O116   O     0.19574   0.53995   0.22985   0.00000  Uiso   1.00
O117   O     0.52312   0.51309   0.17812   0.00000  Uiso   1.00
C118   C     0.38650   0.42699   1.08904   0.00000  Uiso   1.00
C119   C     0.57697   0.57192   1.04553   0.00000  Uiso   1.00
O120   O     0.36111   0.64453   0.17536   0.00000  Uiso   1.00
O121   O     0.48316   0.62589   0.12283   0.00000  Uiso   1.00
O122   O     0.45056   0.74525   0.06516   0.00000  Uiso   1.00
O123   O     0.51409   0.92580   0.07785   0.00000  Uiso   1.00
O124   O     0.07275   0.49764   0.45470   0.00000  Uiso   1.00
C125   C    -0.04778   0.35113   0.55527   0.00000  Uiso   1.00
C126   C     0.58106   0.92704   0.50241   0.00000  Uiso   1.00
C127   C     0.13155   0.48832   0.58366   0.00000  Uiso   1.00
C128   C     0.56313   0.76103   0.35979   0.00000  Uiso   1.00
C129   C     0.74610   0.94175   0.35122   0.00000  Uiso   1.00
O130   O     0.61028   0.96139   0.36328   0.00000  Uiso   1.00
O131   O     0.32219   0.75297   0.88463   0.00000  Uiso   1.00
O132   O     0.41113   0.83078   0.98497   0.00000  Uiso   1.00
O133   O     0.45835   0.93368   0.87069   0.00000  Uiso   1.00
O134   O     0.31553   0.88180   0.94187   0.00000  Uiso   1.00
C135   C     0.01304   0.55799   0.55952   0.00000  Uiso   1.00
C136   C     0.46926   0.80615   0.65202   0.00000  Uiso   1.00
C137   C     0.47060   0.67991   0.74965   0.00000  Uiso   1.00
O138   O     0.51075   0.86195   0.78143   0.00000  Uiso   1.00
O139   O     0.81452   0.10281   0.15597   0.00000  Uiso   1.00
C140   C     0.84517   0.99914   0.07007   0.00000  Uiso   1.00
O141   O     0.60923   0.09649   0.12133   0.00000  Uiso   1.00
C142   C     0.66268   0.13478   0.25112   0.00000  Uiso   1.00
C143   C     0.63708   0.26248   0.17640   0.00000  Uiso   1.00
O144   O     0.90049   0.19518   0.95425   0.00000  Uiso   1.00
O145   O     0.76252   0.09063   0.03697   0.00000  Uiso   1.00
C146   C     0.78503   0.05482   0.77789   0.00000  Uiso   1.00
O147   O     0.87127   0.04640   0.89386   0.00000  Uiso   1.00
O148   O     0.61479   0.03229   0.83969   0.00000  Uiso   1.00
O149   O     0.75322   0.15311   0.91475   0.00000  Uiso   1.00
C150   C     0.59652   0.12569   0.94497   0.00000  Uiso   1.00
O151   O     0.76921   0.24652   0.12847   0.00000  Uiso   1.00
O152   O     0.83599   0.27481   0.00915   0.00000  Uiso   1.00
C153   C     0.77889   0.38688   0.03980   0.00000  Uiso   1.00
O154   O     0.92697   0.41092   0.09585   0.00000  Uiso   1.00
O155   O     0.63612   0.46871   0.18117   0.00000  Uiso   1.00
C156   C     0.75116   0.64006   0.24519   0.00000  Uiso   1.00
C157   C     0.68744   0.38320   0.33479   0.00000  Uiso   1.00
C158   C     0.83066   0.37334   0.39262   0.00000  Uiso   1.00
C159   C     0.82269   0.54515   0.41986   0.00000  Uiso   1.00
O160   O     0.93825   0.52698   0.17989   0.00000  Uiso   1.00
O161   O     0.80063   0.53284   0.18956   0.00000  Uiso   1.00
O162   O     0.87136   0.51170   0.29619   0.00000  Uiso   1.00
O163   O     0.69276   0.21493   0.82630   0.00000  Uiso   1.00
C164   C     0.84784   0.30503   0.75498   0.00000  Uiso   1.00
C165   C     0.82062   0.40879   0.86655   0.00000  Uiso   1.00
C166   C     1.02101   0.44520   0.85410   0.00000  Uiso   1.00
C167   C     0.85930   0.55883   0.69888   0.00000  Uiso   1.00
C168   C     0.76249   0.40034   0.60265   0.00000  Uiso   1.00
O169   O     0.73578   0.35927   0.74448   0.00000  Uiso   1.00
C170   C     0.66178   0.45143   0.70238   0.00000  Uiso   1.00
O171   O     0.76104   0.62581   0.10592   0.00000  Uiso   1.00
C172   C     0.76328   0.58536  -0.02952   0.00000  Uiso   1.00
C173   C     0.85037   0.78685   0.01159   0.00000  Uiso   1.00
C174   C     0.92228   0.66130   0.04729   0.00000  Uiso   1.00
O175   O     0.53017   0.79327   0.17401   0.00000  Uiso   1.00
O176   O     0.67794   0.94314   0.12330   0.00000  Uiso   1.00
O177   O     0.64575   0.91099   0.24995   0.00000  Uiso   1.00
C178   C     0.97550   0.85727   0.19532   0.00000  Uiso   1.00
O179   O     0.95155   0.67903   0.22701   0.00000  Uiso   1.00
O180   O     0.92389   0.76444   0.32750   0.00000  Uiso   1.00
C181   C     0.65064   0.75420   0.60733   0.00000  Uiso   1.00
C182   C     0.76062   0.97459   0.59386   0.00000  Uiso   1.00
O183   O     0.62454   0.85750   0.70042   0.00000  Uiso   1.00
C184   C     1.18591   1.02794   0.25522   0.00000  Uiso   1.00
C185   C     0.67364   0.78417   0.18927   0.00000  Uiso   1.00
C186   C     1.16170   0.94025   0.39311   0.00000  Uiso   1.00
O187   O     1.08244   0.82696   0.28180   0.00000  Uiso   1.00
C188   C     1.26925   0.91736   0.28380   0.00000  Uiso   1.00
C189   C     0.55036   0.74789   0.88549   0.00000  Uiso   1.00
C190   C     0.65128   0.80094   1.00621   0.00000  Uiso   1.00
O191   O     0.70338   0.94681   0.89889   0.00000  Uiso   1.00
O192   O     0.56748   0.88215   0.97883   0.00000  Uiso   1.00
C193   C     0.93030   0.92603   0.35748   0.00000  Uiso   1.00
C194   C     0.89596   0.86387   0.76181   0.00000  Uiso   1.00
O195   O     0.76415   0.86375   0.70148   0.00000  Uiso   1.00
C196   C     0.70915   0.70248   0.79502   0.00000  Uiso   1.00
O197   O     0.78206   0.89445   0.82859   0.00000  Uiso   1.00
H198   H    -0.00362   0.11083   0.21926   0.00000  Uiso   1.00
H199   H    -0.13306   0.00149   0.23027   0.00000  Uiso   1.00
H200   H    -0.06832   0.09051   0.29323   0.00000  Uiso   1.00
H201   H     0.04679   0.30255   0.17221   0.00000  Uiso   1.00
H202   H    -0.02479   0.29257   0.11184   0.00000  Uiso   1.00
H203   H     0.01091   0.21442   0.11174   0.00000  Uiso   1.00
H204   H     0.81990   0.16629   0.28929   0.00000  Uiso   1.00
H205   H     0.85044   0.26324   0.23017   0.00000  Uiso   1.00
H206   H     0.92628   0.27190   0.28672   0.00000  Uiso   1.00
H207   H     0.11358   0.04412   0.06538   0.00000  Uiso   1.00
H208   H     0.00596   0.00408   0.06241   0.00000  Uiso   1.00
H209   H     0.07944   0.10612   0.10861   0.00000  Uiso   1.00
H210   H     0.21945   0.28632   0.03979   0.00000  Uiso   1.00
H211   H     0.13398   0.29762   0.02751   0.00000  Uiso   1.00
H212   H     0.20564   0.31795  -0.04418   0.00000  Uiso   1.00
H213   H    -0.14692  -0.09555   0.53077   0.00000  Uiso   1.00
H214   H    -0.03634  -0.02212   0.52668   0.00000  Uiso   1.00
H215   H    -0.09999  -0.09175   0.60405   0.00000  Uiso   1.00
H216   H    -0.18761  -0.37002   0.55032   0.00000  Uiso   1.00
H217   H    -0.25222  -0.32205   0.54094   0.00000  Uiso   1.00
H218   H    -0.20382  -0.31232   0.61599   0.00000  Uiso   1.00
H219   H     0.32803   1.12438   0.67543   0.00000  Uiso   1.00
H220   H     0.23916   1.02813   0.66301   0.00000  Uiso   1.00
H221   H     0.30574   1.00917   0.71084   0.00000  Uiso   1.00
H222   H     0.07651   0.13478   0.61454   0.00000  Uiso   1.00
H223   H    -0.00695   0.05026   0.68113   0.00000  Uiso   1.00
H224   H     0.06983   0.02782   0.63448   0.00000  Uiso   1.00
H225   H     0.25765   0.22608   0.63932   0.00000  Uiso   1.00
H226   H     0.28684   0.26776   0.72482   0.00000  Uiso   1.00
H227   H     0.24121   0.31516   0.66470   0.00000  Uiso   1.00
H228   H     0.00120   0.20339   0.44477   0.00000  Uiso   1.00
H229   H    -0.06288   0.18454   0.37308   0.00000  Uiso   1.00
H230   H    -0.03651   0.27659   0.41760   0.00000  Uiso   1.00
H231   H     0.19011   0.26410   0.32196   0.00000  Uiso   1.00
H232   H     0.12206   0.23598   0.25808   0.00000  Uiso   1.00
H233   H     0.07449   0.15885   0.33445   0.00000  Uiso   1.00
H234   H     0.21117   0.36370   0.42100   0.00000  Uiso   1.00
H235   H     0.14190   0.39077   0.44913   0.00000  Uiso   1.00
H236   H     0.20922   0.46282   0.37913   0.00000  Uiso   1.00
H237   H    -0.02518   0.22630   0.71342   0.00000  Uiso   1.00
H238   H     0.08321   0.28813   0.67752   0.00000  Uiso   1.00
H239   H     0.05090   0.35468   0.71715   0.00000  Uiso   1.00
H240   H     0.22424   0.41616   0.76832   0.00000  Uiso   1.00
H241   H     0.22380   0.34597   0.83926   0.00000  Uiso   1.00
H242   H     0.17427   0.41023   0.84538   0.00000  Uiso   1.00
H243   H     0.18215   0.58790   0.99232   0.00000  Uiso   1.00
H244   H     0.14981   0.47504   0.95039   0.00000  Uiso   1.00
H245   H     0.07877   0.46965   1.01008   0.00000  Uiso   1.00
H246   H     1.05402   0.65761   0.95758   0.00000  Uiso   1.00
H247   H     0.97446   0.53416   0.98896   0.00000  Uiso   1.00
H248   H     0.96858   0.58652   0.91209   0.00000  Uiso   1.00
H249   H     0.30501   0.78980   0.10980   0.00000  Uiso   1.00
H250   H     0.26216   0.67118   0.08827   0.00000  Uiso   1.00
H251   H     0.23580   0.69937   0.17197   0.00000  Uiso   1.00
H252   H     0.19692   0.84689   0.14673   0.00000  Uiso   1.00
H253   H     0.11527   0.73538   0.19967   0.00000  Uiso   1.00
H254   H     0.08016   0.78385   0.12554   0.00000  Uiso   1.00
H255   H     0.26446   0.96355   0.05302   0.00000  Uiso   1.00
H256   H     0.14999   0.89404   0.03091   0.00000  Uiso   1.00
H257   H     0.23793   0.99626  -0.02022   0.00000  Uiso   1.00
H258   H     0.02635   0.64046   0.35961   0.00000  Uiso   1.00
H259   H     0.13962   0.73867   0.37546   0.00000  Uiso   1.00
H260   H     0.06754   0.67871   0.44144   0.00000  Uiso   1.00
H261   H    -0.26277   0.73995   0.34902   0.00000  Uiso   1.00
H262   H    -0.22845   0.78335   0.43382   0.00000  Uiso   1.00
H263   H    -0.26293   0.66728   0.41917   0.00000  Uiso   1.00
H264   H     0.36007   0.83008   0.50504   0.00000  Uiso   1.00
H265   H     0.24434   0.73368   0.51482   0.00000  Uiso   1.00
H266   H     0.29451   0.84141   0.45068   0.00000  Uiso   1.00
H267   H     0.37166   0.61615   0.42005   0.00000  Uiso   1.00
H268   H     0.29560   0.57791   0.49061   0.00000  Uiso   1.00
H269   H     0.40536   0.69310   0.49244   0.00000  Uiso   1.00
H270   H     0.00767   0.83036   0.62352   0.00000  Uiso   1.00
H271   H     0.06848   0.87085   0.54548   0.00000  Uiso   1.00
H272   H     0.00059   0.74013   0.56665   0.00000  Uiso   1.00
H273   H     0.37785   0.84898   0.32646   0.00000  Uiso   1.00
H274   H     0.39866   0.75925   0.30304   0.00000  Uiso   1.00
H275   H     0.44823   0.83391   0.37507   0.00000  Uiso   1.00
H276   H     0.20037   0.55489   0.77031   0.00000  Uiso   1.00
H277   H     0.28645   0.57859   0.82171   0.00000  Uiso   1.00
H278   H     0.31064   0.66164   0.75039   0.00000  Uiso   1.00
H279   H     0.26277   0.84641   0.79844   0.00000  Uiso   1.00
H280   H     0.22356   0.76422   0.72883   0.00000  Uiso   1.00
H281   H     0.33769   0.83899   0.74452   0.00000  Uiso   1.00
H282   H     0.97449   0.79111   0.90458   0.00000  Uiso   1.00
H283   H     1.01911   0.91449   0.87341   0.00000  Uiso   1.00
H284   H     1.05562   0.87944   0.94825   0.00000  Uiso   1.00
H285   H     1.12569   0.81546   0.73963   0.00000  Uiso   1.00
H286   H     1.01704   0.79028   0.76095   0.00000  Uiso   1.00
H287   H     1.04520   0.71327   0.79668   0.00000  Uiso   1.00
H288   H     0.40514   0.00745   0.04120   0.00000  Uiso   1.00
H289   H     0.49054   0.12773   0.05967   0.00000  Uiso   1.00
H290   H     0.40913   0.05246   0.12381   0.00000  Uiso   1.00
H291   H     0.39484   0.87216   0.20041   0.00000  Uiso   1.00
H292   H     0.45102   0.99071   0.23328   0.00000  Uiso   1.00
H293   H     0.50196   0.92850   0.22918   0.00000  Uiso   1.00
H294   H     0.55825   0.51627   0.43223   0.00000  Uiso   1.00
H295   H     0.60693   0.45360   0.42992   0.00000  Uiso   1.00
H296   H     0.50567   0.39997   0.47675   0.00000  Uiso   1.00
H297   H     0.34548   0.35955   0.30891   0.00000  Uiso   1.00
H298   H     0.39434   0.43805   0.37630   0.00000  Uiso   1.00
H299   H     0.32142   0.30897   0.39377   0.00000  Uiso   1.00
H300   H     0.39480   0.20183   0.34132   0.00000  Uiso   1.00
H301   H     0.46477   0.22938   0.41092   0.00000  Uiso   1.00
H302   H     0.50868   0.25275   0.32731   0.00000  Uiso   1.00
H303   H     0.49045   0.01435   0.38942   0.00000  Uiso   1.00
H304   H     0.58621   0.13770   0.41167   0.00000  Uiso   1.00
H305   H     0.50766   0.04809   0.47768   0.00000  Uiso   1.00
H306   H     0.73012   0.16924   0.47844   0.00000  Uiso   1.00
H307   H     0.75128   0.16907   0.39415   0.00000  Uiso   1.00
H308   H     0.77974   0.10365   0.45252   0.00000  Uiso   1.00
H309   H     0.48097   0.15942   0.87937   0.00000  Uiso   1.00
H310   H     0.38985   0.06337   0.84460   0.00000  Uiso   1.00
H311   H     0.38963   0.08596   0.93821   0.00000  Uiso   1.00
H312   H     0.53437   0.32631   0.83798   0.00000  Uiso   1.00
H313   H     0.48970   0.38968   0.81673   0.00000  Uiso   1.00
H314   H     0.48069   0.30216   0.76384   0.00000  Uiso   1.00
H315   H     0.35235   0.29622   0.93977   0.00000  Uiso   1.00
H316   H     0.43613   0.28164   0.96416   0.00000  Uiso   1.00
H317   H     0.32154   0.17722   0.97330   0.00000  Uiso   1.00
H318   H     0.16560   0.08230   0.93824   0.00000  Uiso   1.00
H319   H     0.18167   0.17898   0.89076   0.00000  Uiso   1.00
H320   H     0.07687   0.06259   0.88972   0.00000  Uiso   1.00
H321   H     0.47553  -0.02386   0.59267   0.00000  Uiso   1.00
H322   H     0.44514   0.05751   0.58676   0.00000  Uiso   1.00
H323   H     0.38442  -0.04717   0.64383   0.00000  Uiso   1.00
H324   H     0.45909   0.15883   0.72674   0.00000  Uiso   1.00
H325   H     0.54428   0.23107   0.66673   0.00000  Uiso   1.00
H326   H     0.57697   0.22219   0.74718   0.00000  Uiso   1.00
H327   H     0.63925   0.13139   0.60078   0.00000  Uiso   1.00
H328   H     0.66383   0.08877   0.67257   0.00000  Uiso   1.00
H329   H     0.69367   0.20864   0.66766   0.00000  Uiso   1.00
H330   H     0.45097   0.24965   0.21915   0.00000  Uiso   1.00
H331   H     0.46487   0.29044   0.13551   0.00000  Uiso   1.00
H332   H     0.38590   0.28624   0.19185   0.00000  Uiso   1.00
H333   H     0.18714   0.49718   0.09555   0.00000  Uiso   1.00
H334   H     0.19474   0.40267   0.13138   0.00000  Uiso   1.00
H335   H     0.28883   0.49766   0.08052   0.00000  Uiso   1.00
H336   H     0.36891   0.50223   0.23352   0.00000  Uiso   1.00
H337   H     0.25717   0.39252   0.24211   0.00000  Uiso   1.00
H338   H     0.29962   0.49306   0.30095   0.00000  Uiso   1.00
H339   H     0.33282   0.40125   1.12798   0.00000  Uiso   1.00
H340   H     0.40464   0.37425   1.07744   0.00000  Uiso   1.00
H341   H     0.36471   0.44642   1.04531   0.00000  Uiso   1.00
H342   H     0.64034   0.63317   1.05781   0.00000  Uiso   1.00
H343   H     0.56406   0.59666   0.99828   0.00000  Uiso   1.00
H344   H     0.57880   0.50973   1.03768   0.00000  Uiso   1.00
H345   H    -0.10725   0.31304   0.52589   0.00000  Uiso   1.00
H346   H    -0.07399   0.35429   0.60487   0.00000  Uiso   1.00
H347   H    -0.02342   0.30493   0.55960   0.00000  Uiso   1.00
H348   H     0.51120   0.88588   0.51043   0.00000  Uiso   1.00
H349   H     0.61617   0.97180   0.54623   0.00000  Uiso   1.00
H350   H     0.60019   0.87647   0.49716   0.00000  Uiso   1.00
H351   H     0.10579   0.47802   0.63766   0.00000  Uiso   1.00
H352   H     0.19361   0.56259   0.57621   0.00000  Uiso   1.00
H353   H     0.13763   0.43006   0.57087   0.00000  Uiso   1.00
H354   H     0.56266   0.75498   0.41412   0.00000  Uiso   1.00
H355   H     0.59062   0.72578   0.33697   0.00000  Uiso   1.00
H356   H     0.49836   0.73408   0.33899   0.00000  Uiso   1.00
H357   H     0.74752   0.94000   0.40499   0.00000  Uiso   1.00
H358   H     0.79410   1.02054   0.32744   0.00000  Uiso   1.00
H359   H     0.75493   0.88479   0.33202   0.00000  Uiso   1.00
H360   H    -0.00944   0.53373   0.61613   0.00000  Uiso   1.00
H361   H    -0.04045   0.54690   0.52829   0.00000  Uiso   1.00
H362   H     0.07378   0.63147   0.55860   0.00000  Uiso   1.00
H363   H     0.40542   0.78860   0.65707   0.00000  Uiso   1.00
H364   H     0.47967   0.76605   0.61246   0.00000  Uiso   1.00
H365   H     0.51289   0.88122   0.63480   0.00000  Uiso   1.00
H366   H     0.43176   0.65620   0.79816   0.00000  Uiso   1.00
H367   H     0.51972   0.66311   0.75324   0.00000  Uiso   1.00
H368   H     0.43138   0.63683   0.70911   0.00000  Uiso   1.00
H369   H     0.91228   1.06540   0.07491   0.00000  Uiso   1.00
H370   H     0.83694   0.97230   0.01927   0.00000  Uiso   1.00
H371   H     0.82980   0.93817   0.10819   0.00000  Uiso   1.00
H372   H     0.67956   0.08023   0.25127   0.00000  Uiso   1.00
H373   H     0.59064   0.09325   0.25911   0.00000  Uiso   1.00
H374   H     0.69128   0.18597   0.29009   0.00000  Uiso   1.00
H375   H     0.61991   0.27590   0.12756   0.00000  Uiso   1.00
H376   H     0.68386   0.33210   0.19500   0.00000  Uiso   1.00
H377   H     0.57837   0.22458   0.21436   0.00000  Uiso   1.00
H378   H     0.80675   0.12939   0.79696   0.00000  Uiso   1.00
H379   H     0.72289   0.02255   0.75954   0.00000  Uiso   1.00
H380   H     0.82581   0.05756   0.73381   0.00000  Uiso   1.00
H381   H     0.52644   0.08577   0.92699   0.00000  Uiso   1.00
H382   H     0.61236   0.19303   0.96382   0.00000  Uiso   1.00
H383   H     0.60051   0.08231   0.98427   0.00000  Uiso   1.00
H384   H     0.71687   0.33442   0.01814   0.00000  Uiso   1.00
H385   H     0.82106   0.43755  -0.00354   0.00000  Uiso   1.00
H386   H     0.77185   0.42267   0.08309   0.00000  Uiso   1.00
H387   H     0.76155   0.61707   0.29235   0.00000  Uiso   1.00
H388   H     0.69335   0.63607   0.25099   0.00000  Uiso   1.00
H389   H     0.80534   0.71371   0.22883   0.00000  Uiso   1.00
H390   H     0.66901   0.31591   0.30994   0.00000  Uiso   1.00
H391   H     0.67512   0.42886   0.30448   0.00000  Uiso   1.00
H392   H     0.65178   0.35716   0.38295   0.00000  Uiso   1.00
H393   H     0.89177   0.41116   0.41721   0.00000  Uiso   1.00
H394   H     0.83059   0.32731   0.35496   0.00000  Uiso   1.00
H395   H     0.78322   0.32689   0.43351   0.00000  Uiso   1.00
H396   H     0.88554   0.58789   0.43983   0.00000  Uiso   1.00
H397   H     0.77668   0.51071   0.46618   0.00000  Uiso   1.00
H398   H     0.81048   0.59083   0.38836   0.00000  Uiso   1.00
H399   H     0.81626   0.24835   0.72091   0.00000  Uiso   1.00
H400   H     0.87707   0.28205   0.79252   0.00000  Uiso   1.00
H401   H     0.89226   0.37567   0.72522   0.00000  Uiso   1.00
H402   H     0.87214   0.47951   0.84313   0.00000  Uiso   1.00
H403   H     0.84777   0.37949   0.90150   0.00000  Uiso   1.00
H404   H     0.77333   0.41439   0.89430   0.00000  Uiso   1.00
H405   H     0.96990   0.38406   0.88384   0.00000  Uiso   1.00
H406   H     1.06469   0.43301   0.82634   0.00000  Uiso   1.00
H407   H     0.99364   0.46498   0.81536   0.00000  Uiso   1.00
H408   H     0.84467   0.59719   0.73697   0.00000  Uiso   1.00
H409   H     0.88022   0.59763   0.64832   0.00000  Uiso   1.00
H410   H     0.90635   0.54675   0.72012   0.00000  Uiso   1.00
H411   H     0.80704   0.46853   0.56829   0.00000  Uiso   1.00
H412   H     0.70384   0.35978   0.57224   0.00000  Uiso   1.00
H413   H     0.79558   0.36182   0.60186   0.00000  Uiso   1.00
H414   H     0.59949   0.38612   0.68408   0.00000  Uiso   1.00
H415   H     0.66573   0.51747   0.68266   0.00000  Uiso   1.00
H416   H     0.65053   0.45247   0.75879   0.00000  Uiso   1.00
H417   H     0.71240   0.59431  -0.04361   0.00000  Uiso   1.00
H418   H     0.72809   0.50855  -0.00445   0.00000  Uiso   1.00
H419   H     0.80497   0.59577  -0.07463   0.00000  Uiso   1.00
H420   H     0.90277   0.84081   0.04007   0.00000  Uiso   1.00
H421   H     0.79401   0.77943   0.02930   0.00000  Uiso   1.00
H422   H     0.85781   0.79693  -0.04561   0.00000  Uiso   1.00
H423   H     0.95170   0.67550  -0.00460   0.00000  Uiso   1.00
H424   H     0.89869   0.59156   0.06773   0.00000  Uiso   1.00
H425   H     0.96751   0.71372   0.07821   0.00000  Uiso   1.00
H426   H     0.97535   0.90929   0.22218   0.00000  Uiso   1.00
H427   H     0.91646   0.81420   0.16981   0.00000  Uiso   1.00
H428   H     1.03640   0.88902   0.16310   0.00000  Uiso   1.00
H429   H     0.70040   0.76398   0.57026   0.00000  Uiso   1.00
H430   H     0.58979   0.73567   0.58607   0.00000  Uiso   1.00
H431   H     0.62360   0.69028   0.64313   0.00000  Uiso   1.00
H432   H     0.74085   0.95738   0.53976   0.00000  Uiso   1.00
H433   H     0.82859   1.00361   0.58679   0.00000  Uiso   1.00
H434   H     0.75962   1.03769   0.61299   0.00000  Uiso   1.00
H435   H     1.25466   1.08384   0.24257   0.00000  Uiso   1.00
H436   H     1.16090   1.06694   0.28275   0.00000  Uiso   1.00
H437   H     1.15645   1.00801   0.20758   0.00000  Uiso   1.00
H438   H     0.74521   0.83598   0.19927   0.00000  Uiso   1.00
H439   H     0.66228   0.75363   0.13964   0.00000  Uiso   1.00
H440   H     0.63707   0.72786   0.23205   0.00000  Uiso   1.00
H441   H     1.18073   0.89885   0.42071   0.00000  Uiso   1.00
H442   H     1.09444   0.91311   0.40583   0.00000  Uiso   1.00
H443   H     1.20604   1.01547   0.40898   0.00000  Uiso   1.00
H444   H     1.32020   0.96946   0.24245   0.00000  Uiso   1.00
H445   H     1.24278   0.84218   0.26619   0.00000  Uiso   1.00
H446   H     1.29811   0.92767   0.33334   0.00000  Uiso   1.00
H447   H     0.58762   0.74056   0.84660   0.00000  Uiso   1.00
H448   H     0.49409   0.75120   0.87361   0.00000  Uiso   1.00
H449   H     0.51996   0.67933   0.91672   0.00000  Uiso   1.00
H450   H     0.58705   0.73972   1.03260   0.00000  Uiso   1.00
H451   H     0.68643   0.85103   1.04598   0.00000  Uiso   1.00
H452   H     0.69290   0.77879   0.98505   0.00000  Uiso   1.00
H453   H     0.99720   0.95996   0.34131   0.00000  Uiso   1.00
H454   H     0.92808   0.96552   0.39870   0.00000  Uiso   1.00
H455   H     0.89017   0.92401   0.31616   0.00000  Uiso   1.00
H456   H     0.94834   0.94400   0.76982   0.00000  Uiso   1.00
H457   H     0.91336   0.84814   0.71177   0.00000  Uiso   1.00
H458   H     0.89887   0.82037   0.80529   0.00000  Uiso   1.00
H459   H     0.71347   0.65481   0.76236   0.00000  Uiso   1.00
H460   H     0.64159   0.67700   0.78590   0.00000  Uiso   1.00
H461   H     0.71561   0.68330   0.84903   0.00000  Uiso   1.00
loop_
_geom_bond_atom_site_label_1
_geom_bond_atom_site_label_2
_geom_bond_distance
_geom_bond_site_symmetry_2
_ccdc_geom_bond_type
Si1    C52     1.864   .     S
Si1    C53     1.809   .     S
Si1    C54     1.858   1_455 S
Si1    O139    1.602   1_455 S
Si2    C55     1.919   .     S
Si2    C56     1.830   .     S
Si2    O60     1.620   1_554 S
Si2    C107    1.849   1_554 S
Si3    C57     1.893   .     S
Si3    C58     1.893   .     S
Si3    O83     1.597   1_545 S
Si3    C87     1.865   1_545 S
Si4    O62     1.576   .     S
Si4    O103    1.566   .     S
Si4    C59     1.878   1_545 S
Si4    O93     1.555   1_545 S
Si5    O60     1.604   .     S
Si5    O69     1.653   .     S
Si5    O144    1.605   1_455 S
Si5    O147    1.611   1_455 S
Si6    C61     1.829   .     S
Si6    O62     1.640   .     S
Si6    C63     1.900   .     S
Si6    O70     1.616   .     S
Si7    O67     1.663   .     S
Si7    O75     1.622   .     S
Si7    O154    1.647   1_455 S
Si7    O160    1.557   1_455 S
Si8    C64     1.856   .     S
Si8    C65     1.862   .     S
Si8    C66     1.815   .     S
Si8    O68     1.606   .     S
Si9    O67     1.651   .     S
Si9    O68     1.678   .     S
Si9    O81     1.619   .     S
Si9    O116    1.604   .     S
Si10   O69     1.568   .     S
Si10   O70     1.582   .     S
Si10   C71     1.830   .     S
Si10   C72     1.881   .     S
Si11   C73     1.889   .     S
Si11   O89     1.567   .     S
Si11   C74     1.848   1_455 S
Si11   C166    1.866   1_455 S
Si12   O75     1.594   .     S
Si12   C76     1.799   .     S
Si12   C77     1.887   .     S
Si12   O78     1.579   .     S
Si13   O78     1.625   .     S
Si13   C79     1.833   .     S
Si13   O92     1.585   1_554 S
Si13   O134    1.606   1_554 S
Si14   C80     1.889   .     S
Si14   O81     1.624   .     S
Si14   O85     1.601   .     S
Si14   O124    1.632   .     S
Si15   C82     1.821   .     S
Si15   O83     1.586   .     S
Si15   O180    1.584   1_455 S
Si15   C193    1.834   1_455 S
Si16   C84     1.835   .     S
Si16   O85     1.570   .     S
Si16   C86     1.910   .     S
Si16   C88     1.924   .     S
Si17   O89     1.600   .     S
Si17   C90     1.829   .     S
Si17   C91     1.849   .     S
Si17   O131    1.593   .     S
Si18   O92     1.572   .     S
Si18   O93     1.656   .     S
Si18   C94     1.886   1_455 S
Si18   C95     1.928   1_455 S
Si19   C96     1.865   .     S
Si19   O141    1.589   .     S
Si19   C97     1.906   1_545 S
Si19   O123    1.609   1_545 S
Si20   C98     1.868   .     S
Si20   C99     1.869   .     S
Si20   C100    1.871   .     S
Si20   O112    1.577   .     S
Si21   C101    1.901   .     S
Si21   C102    1.868   .     S
Si21   C126    1.847   1_545 S
Si21   O130    1.644   1_545 S
Si22   O109    1.603   .     S
Si22   O148    1.562   .     S
Si22   O133    1.580   1_545 S
Si22   O138    1.616   1_545 S
Si23   O103    1.632   .     S
Si23   C104    1.874   .     S
Si23   C105    1.856   .     S
Si23   C106    1.840   .     S
Si24   C108    1.912   .     S
Si24   O109    1.602   .     S
Si24   C110    1.782   .     S
Si24   C111    1.860   .     S
Si25   O112    1.595   .     S
Si25   C113    1.921   .     S
Si25   O117    1.624   .     S
Si25   O155    1.608   .     S
Si26   C114    1.830   .     S
Si26   C115    1.858   .     S
Si26   O116    1.593   .     S
Si26   O120    1.602   .     S
Si27   O117    1.633   .     S
Si27   O121    1.586   .     S
Si27   C118    1.854   1_554 S
Si27   C119    1.859   1_554 S
Si28   O120    1.620   .     S
Si28   O121    1.652   .     S
Si28   O122    1.585   .     S
Si28   O175    1.628   .     S
Si29   O122    1.559   .     S
Si29   O123    1.592   .     S
Si29   O132    1.526   1_554 S
Si29   O192    1.587   1_554 S
Si30   O124    1.613   .     S
Si30   C125    1.870   .     S
Si30   C127    1.850   .     S
Si30   C135    1.837   .     S
Si31   C128    1.892   .     S
Si31   C129    1.826   .     S
Si31   O130    1.623   .     S
Si31   O177    1.594   .     S
Si32   O131    1.591   .     S
Si32   O132    1.560   .     S
Si32   O133    1.607   .     S
Si32   O134    1.586   .     S
Si33   C136    1.788   .     S
Si33   C137    1.803   .     S
Si33   O138    1.591   .     S
Si33   O183    1.635   .     S
Si34   O139    1.603   .     S
Si34   O145    1.577   .     S
Si34   C140    1.823   1_545 S
Si34   O176    1.603   1_545 S
Si35   O141    1.599   .     S
Si35   C142    1.834   .     S
Si35   C143    1.821   .     S
Si35   O151    1.601   .     S
Si36   O145    1.588   .     S
Si36   O152    1.594   .     S
Si36   O144    1.598   1_554 S
Si36   O149    1.618   1_554 S
Si37   C146    1.873   .     S
Si37   O147    1.590   .     S
Si37   O191    1.592   1_545 S
Si37   O197    1.554   1_545 S
Si38   O148    1.616   .     S
Si38   O149    1.638   .     S
Si38   C150    1.815   .     S
Si38   O163    1.550   .     S
Si39   O151    1.600   .     S
Si39   O152    1.541   .     S
Si39   C153    1.867   .     S
Si39   O154    1.658   .     S
Si40   O155    1.624   .     S
Si40   C156    1.847   .     S
Si40   O161    1.583   .     S
Si40   O171    1.613   .     S
Si41   C157    1.923   .     S
Si41   C158    1.807   .     S
Si41   C159    1.859   .     S
Si41   O162    1.579   .     S
Si42   O160    1.601   .     S
Si42   O161    1.595   .     S
Si42   O162    1.572   .     S
Si42   O179    1.668   .     S
Si43   O163    1.580   .     S
Si43   C164    1.811   .     S
Si43   C165    1.930   .     S
Si43   O169    1.556   .     S
Si44   C167    1.881   .     S
Si44   C168    1.871   .     S
Si44   O169    1.628   .     S
Si44   C170    1.860   .     S
Si45   O171    1.637   .     S
Si45   C172    1.830   .     S
Si45   C173    1.862   .     S
Si45   C174    1.900   .     S
Si46   O175    1.589   .     S
Si46   O176    1.585   .     S
Si46   O177    1.559   .     S
Si46   C185    1.870   .     S
Si47   C178    1.913   .     S
Si47   O179    1.626   .     S
Si47   O180    1.649   .     S
Si47   O187    1.584   .     S
Si48   C181    1.849   .     S
Si48   C182    1.853   .     S
Si48   O183    1.601   .     S
Si48   O195    1.601   .     S
Si49   C184    1.793   .     S
Si49   C186    1.970   .     S
Si49   O187    1.564   .     S
Si49   C188    1.923   .     S
Si50   C189    1.888   .     S
Si50   C190    1.824   .     S
Si50   O191    1.583   .     S
Si50   O192    1.616   .     S
Si51   C194    1.832   .     S
Si51   O195    1.610   .     S
Si51   C196    1.828   .     S
Si51   O197    1.612   .     S
C52    H198    1.107   .     S
C52    H199    1.220   .     S
C52    H200    1.098   .     S
C53    H201    1.094   .     S
C53    H202    1.134   .     S
C53    H203    1.081   .     S
C54    H204    1.065   .     S
C54    H205    1.099   .     S
C54    H206    1.072   .     S
C54    Si1     1.858   1_655 S
C55    H207    1.090   .     S
C55    H208    1.053   .     S
C55    H209    1.089   .     S
C56    H210    1.112   .     S
C56    H211    1.095   .     S
C56    H212    1.061   .     S
C57    H213    1.116   .     S
C57    H214    1.072   .     S
C57    H215    1.086   .     S
C58    H216    1.077   .     S
C58    H217    1.105   .     S
C58    H218    1.079   .     S
C59    H219    1.081   .     S
C59    H220    1.037   .     S
C59    H221    1.090   .     S
C59    Si4     1.878   1_565 S
O60    Si2     1.620   1_556 S
C61    H222    1.113   .     S
C61    H223    1.106   .     S
C61    H224    1.112   .     S
C63    H225    1.113   .     S
C63    H226    1.170   .     S
C63    H227    1.120   .     S
C64    H228    1.037   .     S
C64    H229    1.095   .     S
C64    H230    1.106   .     S
C65    H231    1.123   .     S
C65    H232    1.092   .     S
C65    H233    1.083   .     S
C66    H234    1.084   .     S
C66    H235    1.076   .     S
C66    H236    1.100   .     S
C71    H237    1.052   .     S
C71    H238    1.092   .     S
C71    H239    1.099   .     S
C72    H240    1.133   .     S
C72    H241    1.101   .     S
C72    H242    1.070   .     S
C73    H243    1.112   .     S
C73    H244    1.101   .     S
C73    H245    1.105   .     S
C74    H246    1.069   .     S
C74    H247    1.102   .     S
C74    H248    1.040   .     S
C74    Si11    1.848   1_655 S
C76    H249    1.099   .     S
C76    H250    1.129   .     S
C76    H251    1.047   .     S
C77    H252    1.092   .     S
C77    H253    1.173   .     S
C77    H254    1.164   .     S
C79    H255    1.117   .     S
C79    H256    1.096   .     S
C79    H257    1.083   .     S
C80    H258    1.110   .     S
C80    H259    1.134   .     S
C80    H260    1.112   .     S
C82    H261    1.135   .     S
C82    H262    1.066   .     S
C82    H263    1.080   .     S
O83    Si3     1.597   1_565 S
C84    H264    1.089   .     S
C84    H265    1.124   .     S
C84    H266    1.144   .     S
C86    H267    1.091   .     S
C86    H268    1.117   .     S
C86    H269    1.152   .     S
C87    H270    1.135   .     S
C87    H271    1.119   .     S
C87    H272    1.122   .     S
C87    Si3     1.865   1_565 S
C88    H273    1.113   .     S
C88    H274    1.123   .     S
C88    H275    1.098   .     S
C90    H276    1.080   .     S
C90    H277    1.145   .     S
C90    H278    1.091   .     S
C91    H279    1.113   .     S
C91    H280    1.127   .     S
C91    H281    1.074   .     S
O92    Si13    1.585   1_556 S
O93    Si4     1.555   1_565 S
C94    H282    1.063   .     S
C94    H283    1.102   .     S
C94    H284    1.098   .     S
C94    Si18    1.886   1_655 S
C95    H285    1.120   .     S
C95    H286    1.109   .     S
C95    H287    1.149   .     S
C95    Si18    1.928   1_655 S
C96    H288    1.103   .     S
C96    H289    1.132   .     S
C96    H290    1.096   .     S
C97    H291    1.105   .     S
C97    H292    1.117   .     S
C97    H293    1.149   .     S
C97    Si19    1.906   1_565 S
C98    H294    1.091   .     S
C98    H295    1.135   .     S
C98    H296    1.089   .     S
C99    H297    1.126   .     S
C99    H298    1.108   .     S
C99    H299    1.166   .     S
C100   H300    1.067   .     S
C100   H301    1.113   .     S
C100   H302    1.175   .     S
C101   H303    1.136   .     S
C101   H304    1.087   .     S
C101   H305    1.181   .     S
C102   H306    1.114   .     S
C102   H307    1.083   .     S
C102   H308    1.174   .     S
C104   H309    1.102   .     S
C104   H310    1.126   .     S
C104   H311    1.142   .     S
C105   H312    1.063   .     S
C105   H313    1.149   .     S
C105   H314    1.096   .     S
C106   H315    1.126   .     S
C106   H316    1.068   .     S
C106   H317    1.123   .     S
C107   H318    1.068   .     S
C107   H319    1.079   .     S
C107   H320    1.087   .     S
C107   Si2     1.849   1_556 S
C108   H321    1.098   .     S
C108   H322    1.116   .     S
C108   H323    1.118   .     S
C110   H324    1.111   .     S
C110   H325    1.072   .     S
C110   H326    1.141   .     S
C111   H327    1.080   .     S
C111   H328    1.126   .     S
C111   H329    1.076   .     S
C113   H330    1.108   .     S
C113   H331    1.094   .     S
C113   H332    1.107   .     S
C114   H333    1.126   .     S
C114   H334    1.104   .     S
C114   H335    1.096   .     S
C115   H336    1.125   .     S
C115   H337    1.135   .     S
C115   H338    1.118   .     S
C118   H339    1.117   .     S
C118   H340    1.150   .     S
C118   H341    1.092   .     S
C118   Si27    1.854   1_556 S
C119   H342    1.080   .     S
C119   H343    1.108   .     S
C119   H344    1.085   .     S
C119   Si27    1.859   1_556 S
O123   Si19    1.609   1_565 S
C125   H345    1.117   .     S
C125   H346    1.117   .     S
C125   H347    1.109   .     S
C126   H348    1.080   .     S
C126   H349    1.135   .     S
C126   H350    1.107   .     S
C126   Si21    1.847   1_565 S
C127   H351    1.141   .     S
C127   H352    1.116   .     S
C127   H353    1.091   .     S
C128   H354    1.090   .     S
C128   H355    1.093   .     S
C128   H356    1.126   .     S
C129   H357    1.080   .     S
C129   H358    1.163   .     S
C129   H359    1.144   .     S
O130   Si21    1.644   1_565 S
O132   Si29    1.526   1_556 S
O133   Si22    1.580   1_565 S
O134   Si13    1.606   1_556 S
C135   H360    1.173   .     S
C135   H361    1.125   .     S
C135   H362    1.099   .     S
C136   H363    1.060   .     S
C136   H364    1.146   .     S
C136   H365    1.071   .     S
C137   H366    1.113   .     S
C137   H367    1.115   .     S
C137   H368    1.093   .     S
O138   Si22    1.616   1_565 S
O139   Si1     1.602   1_655 S
C140   H369    1.114   .     S
C140   H370    1.110   .     S
C140   H371    1.143   .     S
C140   Si34    1.823   1_565 S
C142   H372    1.132   .     S
C142   H373    1.114   .     S
C142   H374    1.089   .     S
C143   H375    1.094   .     S
C143   H376    1.074   .     S
C143   H377    1.147   .     S
O144   Si5     1.605   1_655 S
O144   Si36    1.598   1_556 S
C146   H378    1.161   .     S
C146   H379    1.051   .     S
C146   H380    1.139   .     S
O147   Si5     1.611   1_655 S
O149   Si36    1.618   1_556 S
C150   H381    1.159   .     S
C150   H382    1.082   .     S
C150   H383    1.086   .     S
C153   H384    1.096   .     S
C153   H385    1.114   .     S
C153   H386    1.125   .     S
O154   Si7     1.647   1_655 S
C156   H387    1.072   .     S
C156   H388    1.054   .     S
C156   H389    1.086   .     S
C157   H390    1.121   .     S
C157   H391    1.090   .     S
C157   H392    1.082   .     S
C158   H393    1.087   .     S
C158   H394    1.104   .     S
C158   H395    1.091   .     S
C159   H396    1.070   .     S
C159   H397    1.135   .     S
C159   H398    1.102   .     S
O160   Si7     1.557   1_655 S
C164   H399    1.073   .     S
C164   H400    1.123   .     S
C164   H401    1.115   .     S
C165   H402    1.087   .     S
C165   H403    1.129   .     S
C165   H404    1.090   .     S
C166   H405    1.060   .     S
C166   H406    1.100   .     S
C166   H407    1.084   .     S
C166   Si11    1.866   1_655 S
C167   H408    1.146   .     S
C167   H409    1.114   .     S
C167   H410    1.107   .     S
C168   H411    1.138   .     S
C168   H412    1.121   .     S
C168   H413    1.129   .     S
C170   H414    1.135   .     S
C170   H415    1.125   .     S
C170   H416    1.149   .     S
C172   H417    1.093   .     S
C172   H418    1.144   .     S
C172   H419    1.123   .     S
C173   H420    1.079   .     S
C173   H421    1.045   .     S
C173   H422    1.146   .     S
C174   H423    1.117   .     S
C174   H424    1.047   .     S
C174   H425    1.046   .     S
O176   Si34    1.603   1_565 S
C178   H426    1.049   .     S
C178   H427    1.074   .     S
C178   H428    1.117   .     S
O180   Si15    1.584   1_655 S
C181   H429    1.112   .     S
C181   H430    1.102   .     S
C181   H431    1.105   .     S
C182   H432    1.150   .     S
C182   H433    1.078   .     S
C182   H434    1.155   .     S
C184   H435    1.089   .     S
C184   H436    1.154   .     S
C184   H437    1.082   .     S
C185   H438    1.136   .     S
C185   H439    1.108   .     S
C185   H440    1.124   .     S
C186   H441    1.089   .     S
C186   H442    1.089   .     S
C186   H443    1.110   .     S
C188   H444    1.145   .     S
C188   H445    1.138   .     S
C188   H446    1.116   .     S
C189   H447    1.094   .     S
C189   H448    1.122   .     S
C189   H449    1.103   .     S
C190   H450    1.137   .     S
C190   H451    1.107   .     S
C190   H452    1.125   .     S
O191   Si37    1.592   1_565 S
O192   Si29    1.587   1_556 S
C193   H453    1.074   .     S
C193   H454    1.097   .     S
C193   H455    1.123   .     S
C193   Si15    1.834   1_655 S
C194   H456    1.146   .     S
C194   H457    1.137   .     S
C194   H458    1.139   .     S
C196   H459    1.094   .     S
C196   H460    1.106   .     S
C196   H461    1.147   .     S
O197   Si37    1.554   1_565 S
