data_333-9-11-16-15-30-11
_audit_creation_date              2025-03-07
_audit_creation_method            'Materials Studio'
_symmetry_space_group_name_H-M    'P1'
_symmetry_Int_Tables_number       1
_symmetry_cell_setting            triclinic
loop_
_symmetry_equiv_pos_as_xyz
  x,y,z
_cell_length_a                    19.8483
_cell_length_b                    15.3026
_cell_length_c                    18.0058
_cell_angle_alpha                 87.8240
_cell_angle_beta                  72.6218
_cell_angle_gamma                 105.0944
loop_
_atom_site_label
_atom_site_type_symbol
_atom_site_fract_x
_atom_site_fract_y
_atom_site_fract_z
_atom_site_U_iso_or_equiv
_atom_site_adp_type
_atom_site_occupancy
Si1    Si    0.00463   0.18088   0.17894   0.00000  Uiso   1.00
Si2    Si    0.22687   0.22406  -0.03782   0.00000  Uiso   1.00
Si3    Si   -0.03753   0.11499   0.44739   0.00000  Uiso   1.00
Si4    Si    0.22562   0.12144   0.29743   0.00000  Uiso   1.00
Si5    Si    0.17118  -0.00268   0.73510   0.00000  Uiso   1.00
Si6    Si    0.15435   0.31282   0.10334   0.00000  Uiso   1.00
Si7    Si   -0.04088   0.50456   0.14460   0.00000  Uiso   1.00
Si8    Si    0.12481   0.23067   0.38470   0.00000  Uiso   1.00
Si9    Si    0.19308   0.44239   0.34766   0.00000  Uiso   1.00
Si10   Si    0.14337   0.49564   0.71022   0.00000  Uiso   1.00
Si11   Si   -0.10222   0.77408   0.14621   0.00000  Uiso   1.00
Si12   Si    0.12161   0.83438   0.65044   0.00000  Uiso   1.00
Si13   Si    0.51210   0.33157   0.67523   0.00000  Uiso   1.00
Si14   Si    0.49601   0.20993   0.45384   0.00000  Uiso   1.00
Si15   Si    0.37163  -0.02607   0.97063   0.00000  Uiso   1.00
Si16   Si    0.63897   0.26073   0.67948   0.00000  Uiso   1.00
Si17   Si    0.57871   0.36101   0.14817   0.00000  Uiso   1.00
Si18   Si    0.57338   0.48081   0.01463   0.00000  Uiso   1.00
Si19   Si    0.56910   0.38361   0.49804   0.00000  Uiso   1.00
Si20   Si    0.29080   0.46136   0.62030   0.00000  Uiso   1.00
Si21   Si    0.55839   0.52030   0.37443   0.00000  Uiso   1.00
Si22   Si    0.66370   0.30640   0.83501   0.00000  Uiso   1.00
Si23   Si    0.35973   0.61731   0.89157   0.00000  Uiso   1.00
Si24   Si    0.22098   0.80277   0.50012   0.00000  Uiso   1.00
Si25   Si    0.52396   0.87311   0.31722   0.00000  Uiso   1.00
Si26   Si    0.52373   0.70968   0.79323   0.00000  Uiso   1.00
Si27   Si    0.21281   0.85960   1.06236   0.00000  Uiso   1.00
Si28   Si    0.77368  -0.06146   0.05749   0.00000  Uiso   1.00
Si29   Si    0.75905   0.18256   0.17780   0.00000  Uiso   1.00
Si30   Si    0.84172  -0.00229   0.38703   0.00000  Uiso   1.00
Si31   Si    0.73546   0.23112   0.52242   0.00000  Uiso   1.00
Si32   Si    0.84988   0.16847   0.28703   0.00000  Uiso   1.00
Si33   Si    0.79554  -0.01482   0.70444   0.00000  Uiso   1.00
Si34   Si    0.45231  -0.09709   1.06400   0.00000  Uiso   1.00
Si35   Si    0.83697   0.15193   0.57896   0.00000  Uiso   1.00
Si36   Si    0.67503   0.48502   0.23175   0.00000  Uiso   1.00
Si37   Si    0.82210   0.51517  -0.03793   0.00000  Uiso   1.00
Si38   Si    0.84540   0.33877   0.37280   0.00000  Uiso   1.00
Si39   Si    0.70824   0.51905   0.51156   0.00000  Uiso   1.00
Si40   Si    0.81319   0.49261   0.27496   0.00000  Uiso   1.00
Si41   Si    0.88243   0.33022   0.63383   0.00000  Uiso   1.00
Si42   Si    0.71107   0.50542   0.87499   0.00000  Uiso   1.00
Si43   Si    0.82831   0.49390   0.58306   0.00000  Uiso   1.00
Si44   Si    0.78505   0.62278   0.09267   0.00000  Uiso   1.00
Si45   Si    0.67239   0.84737   0.22436   0.00000  Uiso   1.00
Si46   Si    0.77561   0.76426  -0.02015   0.00000  Uiso   1.00
Si47   Si    0.80029   0.65550   0.36664   0.00000  Uiso   1.00
Si48   Si    0.71246   0.88884   0.52857   0.00000  Uiso   1.00
Si49   Si    0.80621   0.84142   0.28359   0.00000  Uiso   1.00
Si50   Si    0.78780   0.62317   0.71338   0.00000  Uiso   1.00
Si51   Si    0.78263   0.80266   0.63025   0.00000  Uiso   1.00
C52    C     0.21826   0.10123  -0.03052   0.00000  Uiso   1.00
C53    C     0.19277   0.24475   0.87742   0.00000  Uiso   1.00
C54    C     0.32412   0.28459   0.95326   0.00000  Uiso   1.00
C55    C    -0.01552   0.04834   0.52052   0.00000  Uiso   1.00
C56    C     0.02260   0.07030   0.19293   0.00000  Uiso   1.00
C57    C     0.16460   0.00233   0.32840   0.00000  Uiso   1.00
C58    C     0.30027   0.15211   0.34603   0.00000  Uiso   1.00
C59    C     0.27121   0.13461   0.19165   0.00000  Uiso   1.00
C60    C     0.09022  -0.03334   0.83080   0.00000  Uiso   1.00
C61    C     0.18033   0.09995   0.66035   0.00000  Uiso   1.00
C62    C     0.25171   1.02114   0.76600   0.00000  Uiso   1.00
O63    O     0.07597   0.26503   0.16383   0.00000  Uiso   1.00
O64    O     0.17308   0.24432   0.04238   0.00000  Uiso   1.00
C65    C     0.15371   0.41683   0.05432   0.00000  Uiso   1.00
C66    C     0.22931   0.34416   0.14826   0.00000  Uiso   1.00
C67    C    -0.00756   0.56948   0.04695   0.00000  Uiso   1.00
C68    C     0.95563   0.38812   0.14181   0.00000  Uiso   1.00
O69    O     0.04280   0.17969   0.39332   0.00000  Uiso   1.00
O70    O     0.17493   0.18895   0.31606   0.00000  Uiso   1.00
C71    C     0.03150   0.55170   0.19144   0.00000  Uiso   1.00
C72    C     0.17726   0.50578   0.26409   0.00000  Uiso   1.00
O73    O     0.13975   0.33833   0.36022   0.00000  Uiso   1.00
C74    C     0.15837   0.49431   0.43550   0.00000  Uiso   1.00
C75    C     0.29203   0.44702   0.32017   0.00000  Uiso   1.00
C76    C     0.09131   0.36820   0.74153   0.00000  Uiso   1.00
C77    C     0.13759   0.54950   0.80237   0.00000  Uiso   1.00
C78    C     0.09953   0.54084   0.64703   0.00000  Uiso   1.00
C79    C    -0.03914   0.73802   0.18838   0.00000  Uiso   1.00
C80    C    -0.04611   0.84670   0.04515   0.00000  Uiso   1.00
C81    C     0.05873   0.88084   0.60843   0.00000  Uiso   1.00
C82    C     0.06074   0.75240   0.73864   0.00000  Uiso   1.00
O83    O     0.16885   0.90769   0.68880   0.00000  Uiso   1.00
C84    C     0.43796   0.22165   0.70587   0.00000  Uiso   1.00
C85    C     0.48066   0.41372   0.73696   0.00000  Uiso   1.00
C86    C     0.40117   0.22417   0.50010   0.00000  Uiso   1.00
C87    C     0.49205   0.09307   0.48601   0.00000  Uiso   1.00
C88    C     0.38171   0.96058   0.86850   0.00000  Uiso   1.00
O89    O     0.58621   0.32079   0.67615   0.00000  Uiso   1.00
C90    C     0.41012   0.08993   0.97641   0.00000  Uiso   1.00
C91    C     0.59086   0.13640   0.70090   0.00000  Uiso   1.00
C92    C     0.47453   0.33735   0.19718   0.00000  Uiso   1.00
C93    C     0.59153   0.25262   0.12030   0.00000  Uiso   1.00
O94    O     0.60301   0.42479   0.06904   0.00000  Uiso   1.00
C95    C     0.56157   0.58068   0.07287   0.00000  Uiso   1.00
O96    O     0.51884   0.36552   0.58793   0.00000  Uiso   1.00
O97    O     0.55210   0.28378   0.47890   0.00000  Uiso   1.00
C98    C     0.14418   0.21082   0.47957   0.00000  Uiso   1.00
C99    C     0.29371   0.36892   0.68957   0.00000  Uiso   1.00
C100   C     0.38081   0.54452   0.58875   0.00000  Uiso   1.00
C101   C     0.26887   0.41223   0.53450   0.00000  Uiso   1.00
O102   O     0.23047   0.50770   0.66338   0.00000  Uiso   1.00
C103   C     0.47546   0.51173   0.34909   0.00000  Uiso   1.00
O104   O     0.53804   0.44356   0.44831   0.00000  Uiso   1.00
C105   C     0.57110   0.62770   0.41760   0.00000  Uiso   1.00
C106   C     0.68573   0.21317   0.89078   0.00000  Uiso   1.00
O107   O     0.67727   0.28831   0.74501   0.00000  Uiso   1.00
C108   C     0.56471   0.29606   0.87381   0.00000  Uiso   1.00
C109   C     0.34650   0.51247   0.83842   0.00000  Uiso   1.00
C110   C     0.34199   0.58337   0.99599   0.00000  Uiso   1.00
C111   C     0.47822   0.41628   1.01732   0.00000  Uiso   1.00
C112   C     0.28805   0.68161   0.88886   0.00000  Uiso   1.00
C113   C     0.27246   0.92313   0.46131   0.00000  Uiso   1.00
C114   C     0.15961   0.75514   0.44442   0.00000  Uiso   1.00
C115   C     0.28911   0.73112   0.48951   0.00000  Uiso   1.00
O116   O     0.17439   0.79161   0.58996   0.00000  Uiso   1.00
C117   C     0.49610   0.98051   0.29301   0.00000  Uiso   1.00
C118   C     0.48024   0.77711   0.27057   0.00000  Uiso   1.00
C119   C     0.49699   0.85432   0.42469   0.00000  Uiso   1.00
O120   O     0.44030   0.68647   0.85264   0.00000  Uiso   1.00
C121   C     0.51957   0.70820   0.68862   0.00000  Uiso   1.00
C122   C     0.57742   0.82471   0.80420   0.00000  Uiso   1.00
C123   C     0.56888   0.62779   0.81582   0.00000  Uiso   1.00
C124   C     0.15889   0.81740   0.99444   0.00000  Uiso   1.00
C125   C     0.24053   0.75868   1.08849   0.00000  Uiso   1.00
O126   O     0.28683   0.93883   1.02501   0.00000  Uiso   1.00
C127   C     0.16070   0.89563   1.14904   0.00000  Uiso   1.00
C128   C     0.75030  -0.00867  -0.02140   0.00000  Uiso   1.00
C129   C     0.85351   0.00785   0.07941   0.00000  Uiso   1.00
C130   C     0.98788   0.18558   0.08043   0.00000  Uiso   1.00
C131   C     0.67483   0.09085   0.19750   0.00000  Uiso   1.00
C132   C     0.80164   0.21001   0.06679   0.00000  Uiso   1.00
C133   C     0.73497   0.27431   0.21996   0.00000  Uiso   1.00
C134   C     0.52374   0.22914   0.34604   0.00000  Uiso   1.00
O135   O     0.92144   0.04663   0.39814   0.00000  Uiso   1.00
C136   C     0.66531   0.17866   0.47575   0.00000  Uiso   1.00
O137   O     0.70190   0.27579   0.59761   0.00000  Uiso   1.00
O138   O     0.93722   0.18531   0.25105   0.00000  Uiso   1.00
O139   O     0.81101   0.14800   0.21950   0.00000  Uiso   1.00
O140   O     0.82121   0.08163   0.35101   0.00000  Uiso   1.00
C141   C     0.87864   0.00142   0.73447   0.00000  Uiso   1.00
C142   C     0.72379   1.01349   0.78394   0.00000  Uiso   1.00
O143   O     0.41964  -0.08330   0.99541   0.00000  Uiso   1.00
C144   C     0.47156  -0.20797   1.06353   0.00000  Uiso   1.00
C145   C     0.37588  -0.09686   1.16141   0.00000  Uiso   1.00
O146   O     0.90941   0.16721   0.50110   0.00000  Uiso   1.00
O147   O     0.77295   0.16079   0.54595   0.00000  Uiso   1.00
O148   O     0.82373   0.05290   0.62383   0.00000  Uiso   1.00
O149   O     0.62849   0.39778   0.20524   0.00000  Uiso   1.00
O150   O     0.62657   0.52248   0.29868   0.00000  Uiso   1.00
C151   C     0.91276   0.54008   0.88260   0.00000  Uiso   1.00
C152   C     0.78588   0.39172  -0.00566   0.00000  Uiso   1.00
O153   O     0.79777   0.30903   0.46026   0.00000  Uiso   1.00
O154   O     0.82942   0.25727   0.32327   0.00000  Uiso   1.00
C155   C     0.94502   0.37207   0.35847   0.00000  Uiso   1.00
O156   O     0.65316   0.42824   0.49640   0.00000  Uiso   1.00
C157   C     0.65649   0.56612   0.59541   0.00000  Uiso   1.00
O158   O     0.87832   0.50671   0.19491   0.00000  Uiso   1.00
O159   O     0.73588   0.45833   0.26128   0.00000  Uiso   1.00
O160   O     0.82001   0.41954   0.34266   0.00000  Uiso   1.00
C161   C     0.53554   0.00171   1.05780   0.00000  Uiso   1.00
C162   C     0.88593   0.36105   0.73130   0.00000  Uiso   1.00
O163   O     0.84657   0.22485   0.63386   0.00000  Uiso   1.00
C164   C     0.97691   0.36222   0.56360   0.00000  Uiso   1.00
O165   O     0.71108   0.40547   0.84726   0.00000  Uiso   1.00
O166   O     0.76414   0.53431   0.92668   0.00000  Uiso   1.00
O167   O     0.63055   0.50268   0.92632   0.00000  Uiso   1.00
C168   C     0.92465   0.57010   0.52765   0.00000  Uiso   1.00
O169   O     0.77337   0.49171   0.53059   0.00000  Uiso   1.00
O170   O     0.83761   0.39477   0.60569   0.00000  Uiso   1.00
O171   O     0.71501   0.55908   0.16242   0.00000  Uiso   1.00
O172   O     0.82716   0.56552   0.03479   0.00000  Uiso   1.00
O173   O     0.83550   0.68870   0.13525   0.00000  Uiso   1.00
C174   C     0.64526   0.73026   0.20727   0.00000  Uiso   1.00
O175   O     0.70558   0.91127   0.13932   0.00000  Uiso   1.00
O176   O     0.60889   0.88510   0.28169   0.00000  Uiso   1.00
C177   C     0.85646   0.75363   0.89490   0.00000  Uiso   1.00
O178   O     0.75313   0.67939   0.04257   0.00000  Uiso   1.00
O179   O     0.79919   0.85483   0.02097   0.00000  Uiso   1.00
C180   C     0.69051   0.75970   0.94685   0.00000  Uiso   1.00
O181   O     0.73536   0.59517   0.43937   0.00000  Uiso   1.00
O182   O     0.82001   0.59098   0.30227   0.00000  Uiso   1.00
C183   C     0.87293   0.70304   0.40568   0.00000  Uiso   1.00
C184   C     0.66026   0.82439   0.46763   0.00000  Uiso   1.00
O185   O     0.78221   0.95991   0.47292   0.00000  Uiso   1.00
C186   C     0.64982   0.94224   0.60242   0.00000  Uiso   1.00
O187   O     0.86304   0.84068   0.20181   0.00000  Uiso   1.00
O188   O     0.73610   0.86378   0.26499   0.00000  Uiso   1.00
O189   O     0.78047   0.74048   0.33197   0.00000  Uiso   1.00
O190   O     0.84348   0.91760   0.33244   0.00000  Uiso   1.00
O191   O     0.73543   0.58401   0.80429   0.00000  Uiso   1.00
O192   O     0.79049   0.53646   0.66303   0.00000  Uiso   1.00
C193   C     0.88806   0.67256   0.70888   0.00000  Uiso   1.00
C194   C     0.88358   0.82908   0.56769   0.00000  Uiso   1.00
O195   O     0.73813   0.81642   0.57217   0.00000  Uiso   1.00
O196   O     0.75837   0.69894   0.67676   0.00000  Uiso   1.00
O197   O     0.77088   0.87752   0.69115   0.00000  Uiso   1.00
H198   H     0.26187   0.08602  -0.07697   0.00000  Uiso   1.00
H199   H     0.16761   0.06919  -0.04616   0.00000  Uiso   1.00
H200   H     0.21440   0.06930   0.02781   0.00000  Uiso   1.00
H201   H     0.22359   0.21677   0.82739   0.00000  Uiso   1.00
H202   H     0.20961   0.31624   0.85896   0.00000  Uiso   1.00
H203   H     0.13219   0.21562   0.89570   0.00000  Uiso   1.00
H204   H     0.33104   0.25560   1.00452   0.00000  Uiso   1.00
H205   H     0.33217   0.35768   0.95475   0.00000  Uiso   1.00
H206   H     0.36510   0.27859   0.89813   0.00000  Uiso   1.00
H207   H     0.01857   0.00369   0.49443   0.00000  Uiso   1.00
H208   H    -0.07027   0.00695   0.55243   0.00000  Uiso   1.00
H209   H     0.00716   0.09359   0.55689   0.00000  Uiso   1.00
H210   H     0.05249   0.05444   0.13806   0.00000  Uiso   1.00
H211   H    -0.02500   0.01701   0.22067   0.00000  Uiso   1.00
H212   H     0.06103   0.08295   0.23171   0.00000  Uiso   1.00
H213   H     0.12316  -0.00492   0.29657   0.00000  Uiso   1.00
H214   H     0.13442  -0.00295   0.39442   0.00000  Uiso   1.00
H215   H     0.19585  -0.04719   0.32049   0.00000  Uiso   1.00
H216   H     0.33644   0.22436   0.32986   0.00000  Uiso   1.00
H217   H     0.32813   0.09902   0.33695   0.00000  Uiso   1.00
H218   H     0.26915   0.14623   0.40795   0.00000  Uiso   1.00
H219   H     0.23479   0.13632   0.15685   0.00000  Uiso   1.00
H220   H     0.29696   0.07539   0.17285   0.00000  Uiso   1.00
H221   H     0.32015   0.20011   0.17494   0.00000  Uiso   1.00
H222   H     0.03385  -0.04754   0.82399   0.00000  Uiso   1.00
H223   H     0.10047   0.02173   0.86470   0.00000  Uiso   1.00
H224   H     0.09229  -0.09063   0.86529   0.00000  Uiso   1.00
H225   H     0.23436   0.11605   0.61204   0.00000  Uiso   1.00
H226   H     0.17717   0.15654   0.69611   0.00000  Uiso   1.00
H227   H     0.14249   0.09336   0.62745   0.00000  Uiso   1.00
H228   H     0.29530   1.01061   0.71313   0.00000  Uiso   1.00
H229   H     0.24362   0.96873   0.81414   0.00000  Uiso   1.00
H230   H     0.27378   1.09089   0.78449   0.00000  Uiso   1.00
H231   H     0.20922   0.44262   0.01161   0.00000  Uiso   1.00
H232   H     0.14682   0.46544   0.09443   0.00000  Uiso   1.00
H233   H     0.11357   0.40464   0.02407   0.00000  Uiso   1.00
H234   H     0.20604   0.31436   0.20666   0.00000  Uiso   1.00
H235   H     0.25641   0.42063   0.13934   0.00000  Uiso   1.00
H236   H     0.27284   0.32180   0.11098   0.00000  Uiso   1.00
H237   H    -0.01628   0.52088   0.00552   0.00000  Uiso   1.00
H238   H     0.05446   0.60298   0.02929   0.00000  Uiso   1.00
H239   H    -0.02574   0.63209   0.05131   0.00000  Uiso   1.00
H240   H     0.94542   0.36212   0.08815   0.00000  Uiso   1.00
H241   H     0.91342   0.34685   0.19514   0.00000  Uiso   1.00
H242   H     1.00559   0.37314   0.14639   0.00000  Uiso   1.00
H243   H     0.06430   0.62012   0.16983   0.00000  Uiso   1.00
H244   H     0.06926   0.51303   0.17447   0.00000  Uiso   1.00
H245   H     0.00303   0.54478   0.25576   0.00000  Uiso   1.00
H246   H     0.23305   0.53045   0.21818   0.00000  Uiso   1.00
H247   H     0.14999   0.55645   0.28453   0.00000  Uiso   1.00
H248   H     0.13779   0.45646   0.24197   0.00000  Uiso   1.00
H249   H     0.20604   0.54536   0.44239   0.00000  Uiso   1.00
H250   H     0.14371   0.43971   0.48291   0.00000  Uiso   1.00
H251   H     0.11294   0.52186   0.43216   0.00000  Uiso   1.00
H252   H     0.30712   0.43680   0.25509   0.00000  Uiso   1.00
H253   H     0.30041   0.39462   0.35957   0.00000  Uiso   1.00
H254   H     0.32355   0.51506   0.32354   0.00000  Uiso   1.00
H255   H     0.07973   0.34020   0.69132   0.00000  Uiso   1.00
H256   H     0.04111   0.35662   0.78582   0.00000  Uiso   1.00
H257   H     0.12310   0.33183   0.76889   0.00000  Uiso   1.00
H258   H     0.07759   0.54760   0.83725   0.00000  Uiso   1.00
H259   H     0.17225   0.61870   0.79758   0.00000  Uiso   1.00
H260   H     0.15241   0.50122   0.84170   0.00000  Uiso   1.00
H261   H     0.13517   0.60553   0.60927   0.00000  Uiso   1.00
H262   H     0.04504   0.54609   0.68535   0.00000  Uiso   1.00
H263   H     0.09098   0.49413   0.60206   0.00000  Uiso   1.00
H264   H     0.01304   0.73740   0.14060   0.00000  Uiso   1.00
H265   H    -0.06176   0.67137   0.21778   0.00000  Uiso   1.00
H266   H    -0.02579   0.79315   0.23076   0.00000  Uiso   1.00
H267   H    -0.08411   0.86836   0.02081   0.00000  Uiso   1.00
H268   H    -0.01299   0.80926   0.00236   0.00000  Uiso   1.00
H269   H    -0.00758   0.91061   0.05491   0.00000  Uiso   1.00
H270   H     0.01918   0.81298   0.60760   0.00000  Uiso   1.00
H271   H     0.08789   0.91350   0.54665   0.00000  Uiso   1.00
H272   H     0.03618   0.92448   0.65157   0.00000  Uiso   1.00
H273   H     0.09259   0.73046   0.77684   0.00000  Uiso   1.00
H274   H     0.03602   0.68827   0.71535   0.00000  Uiso   1.00
H275   H     0.01498   0.77451   0.77838   0.00000  Uiso   1.00
H276   H     0.38204   0.23099   0.71201   0.00000  Uiso   1.00
H277   H     0.43862   0.18618   0.75731   0.00000  Uiso   1.00
H278   H     0.45407   0.18430   0.65714   0.00000  Uiso   1.00
H279   H     0.52328   0.48108   0.72101   0.00000  Uiso   1.00
H280   H     0.47184   0.38185   0.79229   0.00000  Uiso   1.00
H281   H     0.42619   0.41328   0.73527   0.00000  Uiso   1.00
H282   H     0.39609   0.28610   0.47435   0.00000  Uiso   1.00
H283   H     0.38755   0.22449   0.56281   0.00000  Uiso   1.00
H284   H     0.36487   0.16627   0.48361   0.00000  Uiso   1.00
H285   H     0.53933   0.07656   0.44859   0.00000  Uiso   1.00
H286   H     0.44271   0.04274   0.48291   0.00000  Uiso   1.00
H287   H     0.48781   0.08184   0.54878   0.00000  Uiso   1.00
H288   H     0.38586   1.02254   0.83713   0.00000  Uiso   1.00
H289   H     0.33320   0.90284   0.86378   0.00000  Uiso   1.00
H290   H     0.43272   0.94040   0.84069   0.00000  Uiso   1.00
H291   H     0.40953   0.10818   1.03374   0.00000  Uiso   1.00
H292   H     0.38711   0.13468   0.94528   0.00000  Uiso   1.00
H293   H     0.46803   0.10399   0.94273   0.00000  Uiso   1.00
H294   H     0.54980   0.12276   0.67250   0.00000  Uiso   1.00
H295   H     0.56639   0.11479   0.76412   0.00000  Uiso   1.00
H296   H     0.62918   0.09152   0.67738   0.00000  Uiso   1.00
H297   H     0.44539   0.30868   0.15784   0.00000  Uiso   1.00
H298   H     0.46558   0.40328   0.21464   0.00000  Uiso   1.00
H299   H     0.45170   0.28498   0.24739   0.00000  Uiso   1.00
H300   H     0.55524   0.19697   0.16797   0.00000  Uiso   1.00
H301   H     0.64719   0.24716   0.09880   0.00000  Uiso   1.00
H302   H     0.56799   0.24243   0.07320   0.00000  Uiso   1.00
H303   H     0.55981   0.63816   0.03453   0.00000  Uiso   1.00
H304   H     0.60975   0.60678   0.09213   0.00000  Uiso   1.00
H305   H     0.51262   0.56685   0.12614   0.00000  Uiso   1.00
H306   H     0.15072   0.13959   0.48971   0.00000  Uiso   1.00
H307   H     0.10734   0.23734   0.52954   0.00000  Uiso   1.00
H308   H     0.19698   0.26139   0.46448   0.00000  Uiso   1.00
H309   H     0.33716   0.33080   0.66068   0.00000  Uiso   1.00
H310   H     0.23567   0.32255   0.71068   0.00000  Uiso   1.00
H311   H     0.30888   0.39695   0.74106   0.00000  Uiso   1.00
H312   H     0.42412   0.51167   0.56320   0.00000  Uiso   1.00
H313   H     0.39404   0.59440   0.63251   0.00000  Uiso   1.00
H314   H     0.36977   0.59128   0.54251   0.00000  Uiso   1.00
H315   H     0.27366   0.46956   0.48669   0.00000  Uiso   1.00
H316   H     0.21010   0.37569   0.54471   0.00000  Uiso   1.00
H317   H     0.29864   0.36680   0.50806   0.00000  Uiso   1.00
H318   H     0.47989   0.55053   0.29014   0.00000  Uiso   1.00
H319   H     0.42622   0.52874   0.39316   0.00000  Uiso   1.00
H320   H     0.45581   0.43952   0.34085   0.00000  Uiso   1.00
H321   H     0.61458   0.68287   0.37673   0.00000  Uiso   1.00
H322   H     0.58995   0.61933   0.46853   0.00000  Uiso   1.00
H323   H     0.51853   0.64637   0.43875   0.00000  Uiso   1.00
H324   H     0.68049   0.22776   0.95290   0.00000  Uiso   1.00
H325   H     0.74213   0.21144   0.85873   0.00000  Uiso   1.00
H326   H     0.64527   0.14854   0.88695   0.00000  Uiso   1.00
H327   H     0.54799   0.26471   0.93804   0.00000  Uiso   1.00
H328   H     0.53722   0.23656   0.84950   0.00000  Uiso   1.00
H329   H     0.54854   0.35973   0.86433   0.00000  Uiso   1.00
H330   H     0.29262   0.48831   0.83552   0.00000  Uiso   1.00
H331   H     0.36460   0.45693   0.86185   0.00000  Uiso   1.00
H332   H     0.38646   0.53738   0.77664   0.00000  Uiso   1.00
H333   H     0.28743   0.58500   1.03194   0.00000  Uiso   1.00
H334   H     0.39121   0.62747   1.00933   0.00000  Uiso   1.00
H335   H     0.34629   0.51245   1.00395   0.00000  Uiso   1.00
H336   H     0.43752   0.42741   1.07266   0.00000  Uiso   1.00
H337   H     0.47099   0.34046   1.01741   0.00000  Uiso   1.00
H338   H     0.46430   0.44065   0.96537   0.00000  Uiso   1.00
H339   H     0.29330   0.72535   0.93446   0.00000  Uiso   1.00
H340   H     0.23081   0.63657   0.90277   0.00000  Uiso   1.00
H341   H     0.30585   0.72499   0.83082   0.00000  Uiso   1.00
H342   H     0.31297   0.94448   0.49177   0.00000  Uiso   1.00
H343   H     0.23034   0.96374   0.47523   0.00000  Uiso   1.00
H344   H     0.30500   0.92743   0.39662   0.00000  Uiso   1.00
H345   H     0.19511   0.77729   0.38026   0.00000  Uiso   1.00
H346   H     0.11085   0.78158   0.46184   0.00000  Uiso   1.00
H347   H     0.14096   0.68176   0.45825   0.00000  Uiso   1.00
H348   H     0.25529   0.66322   0.50744   0.00000  Uiso   1.00
H349   H     0.32119   0.74904   0.53445   0.00000  Uiso   1.00
H350   H     0.32898   0.73482   0.43011   0.00000  Uiso   1.00
H351   H     0.43671   0.97127   0.31654   0.00000  Uiso   1.00
H352   H     0.51874   1.00572   0.22814   0.00000  Uiso   1.00
H353   H     0.52066   1.03691   0.32231   0.00000  Uiso   1.00
H354   H     0.51035   0.78861   0.21076   0.00000  Uiso   1.00
H355   H     0.42494   0.77608   0.27712   0.00000  Uiso   1.00
H356   H     0.47710   0.70671   0.29340   0.00000  Uiso   1.00
H357   H     0.44107   0.85308   0.44450   0.00000  Uiso   1.00
H358   H     0.53182   0.91546   0.44818   0.00000  Uiso   1.00
H359   H     0.50386   0.78939   0.44305   0.00000  Uiso   1.00
H360   H     0.50266   0.63759   0.66995   0.00000  Uiso   1.00
H361   H     0.57377   0.75013   0.64320   0.00000  Uiso   1.00
H362   H     0.47797   0.74227   0.68200   0.00000  Uiso   1.00
H363   H     0.60003   0.83788   0.85632   0.00000  Uiso   1.00
H364   H     0.54732   0.87476   0.79810   0.00000  Uiso   1.00
H365   H     0.62628   0.84195   0.75416   0.00000  Uiso   1.00
H366   H     0.62072   0.62779   0.77068   0.00000  Uiso   1.00
H367   H     0.52811   0.56123   0.82920   0.00000  Uiso   1.00
H368   H     0.57903   0.63781   0.86985   0.00000  Uiso   1.00
H369   H     0.10176   0.76885   1.02056   0.00000  Uiso   1.00
H370   H     0.19272   0.79518   0.94354   0.00000  Uiso   1.00
H371   H     0.15410   0.88657   0.96919   0.00000  Uiso   1.00
H372   H     0.30014   0.75891   1.05556   0.00000  Uiso   1.00
H373   H     0.19796   0.69817   1.08666   0.00000  Uiso   1.00
H374   H     0.23742   0.74996   1.14983   0.00000  Uiso   1.00
H375   H     0.11803   0.84039   1.19324   0.00000  Uiso   1.00
H376   H     0.13333   0.94366   1.13607   0.00000  Uiso   1.00
H377   H     0.19950   0.92910   1.18016   0.00000  Uiso   1.00
H378   H     0.69761  -0.05183  -0.02164   0.00000  Uiso   1.00
H379   H     0.79133  -0.01129  -0.07885   0.00000  Uiso   1.00
H380   H     0.74946   0.06189  -0.02094   0.00000  Uiso   1.00
H381   H     0.83651   0.05450   0.11811   0.00000  Uiso   1.00
H382   H     0.89307   0.04133   0.01904   0.00000  Uiso   1.00
H383   H     0.87575  -0.03754   0.11097   0.00000  Uiso   1.00
H384   H     1.02577   0.24899   0.04763   0.00000  Uiso   1.00
H385   H     0.92845   0.19440   0.09308   0.00000  Uiso   1.00
H386   H     1.00033   0.13006   0.04770   0.00000  Uiso   1.00
H387   H     0.68235   0.04644   0.24186   0.00000  Uiso   1.00
H388   H     0.67632   0.05538   0.14366   0.00000  Uiso   1.00
H389   H     0.62174   0.10786   0.22353   0.00000  Uiso   1.00
H390   H     0.75910   0.21124   0.03801   0.00000  Uiso   1.00
H391   H     0.82987   0.15853   0.03438   0.00000  Uiso   1.00
H392   H     0.84727   0.27733   0.05088   0.00000  Uiso   1.00
H393   H     0.71813   0.25855   0.28733   0.00000  Uiso   1.00
H394   H     0.68905   0.28055   0.20262   0.00000  Uiso   1.00
H395   H     0.78385   0.33488   0.19556   0.00000  Uiso   1.00
H396   H     0.48554   0.18586   0.31998   0.00000  Uiso   1.00
H397   H     0.57810   0.21547   0.32100   0.00000  Uiso   1.00
H398   H     0.52826   0.29784   0.32860   0.00000  Uiso   1.00
H399   H     0.61003   0.16156   0.51839   0.00000  Uiso   1.00
H400   H     0.67656   0.11593   0.45791   0.00000  Uiso   1.00
H401   H     0.66300   0.21996   0.42342   0.00000  Uiso   1.00
H402   H     0.86922  -0.04441   0.78165   0.00000  Uiso   1.00
H403   H     0.88814   0.06983   0.75319   0.00000  Uiso   1.00
H404   H     0.93027  -0.00442   0.69068   0.00000  Uiso   1.00
H405   H     0.68195   1.02998   0.76334   0.00000  Uiso   1.00
H406   H     0.74723   1.07705   0.80580   0.00000  Uiso   1.00
H407   H     0.70169   0.95909   0.83134   0.00000  Uiso   1.00
H408   H     0.47948  -0.22672   1.00455   0.00000  Uiso   1.00
H409   H     0.42891  -0.26666   1.10790   0.00000  Uiso   1.00
H410   H     0.52685  -0.19182   1.06937   0.00000  Uiso   1.00
H411   H     0.40791  -0.09167   1.20322   0.00000  Uiso   1.00
H412   H     0.32755  -0.16603   1.18824   0.00000  Uiso   1.00
H413   H     0.35029  -0.04060   1.16569   0.00000  Uiso   1.00
H414   H     0.95139   0.50245   0.89536   0.00000  Uiso   1.00
H415   H     0.94739   0.61349   0.86721   0.00000  Uiso   1.00
H416   H     0.90400   0.51513   0.82748   0.00000  Uiso   1.00
H417   H     0.79430   0.38169   0.05098   0.00000  Uiso   1.00
H418   H     0.81638   0.35554  -0.04879   0.00000  Uiso   1.00
H419   H     0.73229   0.36354  -0.00503   0.00000  Uiso   1.00
H420   H     0.97688   0.37934   0.29496   0.00000  Uiso   1.00
H421   H     0.96360   0.32436   0.38988   0.00000  Uiso   1.00
H422   H     0.95420   0.43520   0.38604   0.00000  Uiso   1.00
H423   H     0.64817   0.53083   0.65593   0.00000  Uiso   1.00
H424   H     0.60433   0.55971   0.58121   0.00000  Uiso   1.00
H425   H     0.67944   0.64150   0.59501   0.00000  Uiso   1.00
H426   H     0.52592   0.07160   1.06135   0.00000  Uiso   1.00
H427   H     0.57093   0.01155   0.99609   0.00000  Uiso   1.00
H428   H     0.56675  -0.01330   1.09754   0.00000  Uiso   1.00
H429   H     0.93580   0.41449   0.72671   0.00000  Uiso   1.00
H430   H     0.88234   0.29440   0.76669   0.00000  Uiso   1.00
H431   H     0.83657   0.38011   0.76347   0.00000  Uiso   1.00
H432   H     1.01137   0.32786   0.58614   0.00000  Uiso   1.00
H433   H     1.00196   0.43854   0.55358   0.00000  Uiso   1.00
H434   H     0.96871   0.33648   0.51114   0.00000  Uiso   1.00
H435   H     0.94704   0.55216   0.46877   0.00000  Uiso   1.00
H436   H     0.96380   0.56630   0.55794   0.00000  Uiso   1.00
H437   H     0.92883   0.64455   0.52383   0.00000  Uiso   1.00
H438   H     0.59915   0.68576   0.26000   0.00000  Uiso   1.00
H439   H     0.69796   0.70669   0.19771   0.00000  Uiso   1.00
H440   H     0.62830   0.72989   0.15299   0.00000  Uiso   1.00
H441   H     0.90218   0.74273   0.91085   0.00000  Uiso   1.00
H442   H     0.88068   0.81173   0.84738   0.00000  Uiso   1.00
H443   H     0.84120   0.69466   0.86585   0.00000  Uiso   1.00
H444   H     0.67165   0.69297   0.92540   0.00000  Uiso   1.00
H445   H     0.70390   0.81301   0.90066   0.00000  Uiso   1.00
H446   H     0.65051   0.77275   0.99937   0.00000  Uiso   1.00
H447   H     0.87406   0.77534   0.40506   0.00000  Uiso   1.00
H448   H     0.92510   0.69046   0.37072   0.00000  Uiso   1.00
H449   H     0.84871   0.66385   0.46665   0.00000  Uiso   1.00
H450   H     0.66601   0.86861   0.41475   0.00000  Uiso   1.00
H451   H     0.60350   0.80421   0.50219   0.00000  Uiso   1.00
H452   H     0.68564   0.76951   0.44623   0.00000  Uiso   1.00
H453   H     0.67873   0.96935   0.64330   0.00000  Uiso   1.00
H454   H     0.60020   0.89212   0.62868   0.00000  Uiso   1.00
H455   H     0.64122   1.00203   0.57202   0.00000  Uiso   1.00
H456   H     0.89961   0.74408   0.71597   0.00000  Uiso   1.00
H457   H     0.92009   0.66635   0.64981   0.00000  Uiso   1.00
H458   H     0.90223   0.63620   0.74913   0.00000  Uiso   1.00
H459   H     0.88907   0.86867   0.51220   0.00000  Uiso   1.00
H460   H     0.90273   0.76989   0.55146   0.00000  Uiso   1.00
H461   H     0.91472   0.87150   0.60269   0.00000  Uiso   1.00
loop_
_geom_bond_atom_site_label_1
_geom_bond_atom_site_label_2
_geom_bond_distance
_geom_bond_site_symmetry_2
_ccdc_geom_bond_type
Si1    C56     1.841   .     S
Si1    O63     1.591   .     S
Si1    C130    1.902   1_455 S
Si1    O138    1.580   1_455 S
Si2    C52     1.838   .     S
Si2    O64     1.614   .     S
Si2    C53     1.892   1_554 S
Si2    C54     1.866   1_554 S
Si3    C55     1.854   .     S
Si3    O69     1.627   .     S
Si3    O135    1.613   1_455 S
Si3    O146    1.604   1_455 S
Si4    C57     1.863   .     S
Si4    C58     1.904   .     S
Si4    C59     1.826   .     S
Si4    O70     1.599   .     S
Si5    C60     1.914   .     S
Si5    C61     1.964   .     S
Si5    C62     1.800   1_545 S
Si5    O83     1.629   1_545 S
Si6    O63     1.574   .     S
Si6    O64     1.578   .     S
Si6    C65     1.795   .     S
Si6    C66     1.864   .     S
Si7    C67     1.829   .     S
Si7    C71     1.878   .     S
Si7    C68     1.768   1_455 S
Si7    O158    1.599   1_455 S
Si8    O69     1.569   .     S
Si8    O70     1.607   .     S
Si8    O73     1.615   .     S
Si8    C98     1.890   .     S
Si9    C72     1.906   .     S
Si9    O73     1.631   .     S
Si9    C74     1.827   .     S
Si9    C75     1.858   .     S
Si10   C76     1.926   .     S
Si10   C77     1.867   .     S
Si10   C78     1.837   .     S
Si10   O102    1.639   .     S
Si11   C79     1.829   .     S
Si11   C80     1.944   .     S
Si11   O173    1.612   1_455 S
Si11   O187    1.596   1_455 S
Si12   C81     1.903   .     S
Si12   C82     1.863   .     S
Si12   O83     1.585   .     S
Si12   O116    1.563   .     S
Si13   C84     1.859   .     S
Si13   C85     1.818   .     S
Si13   O89     1.527   .     S
Si13   O96     1.592   .     S
Si14   C86     1.891   .     S
Si14   C87     1.833   .     S
Si14   O97     1.550   .     S
Si14   C134    1.842   .     S
Si15   C90     1.761   .     S
Si15   O143    1.592   .     S
Si15   C88     1.815   1_545 S
Si15   O126    1.608   1_545 S
Si16   O89     1.575   .     S
Si16   C91     1.860   .     S
Si16   O107    1.598   .     S
Si16   O137    1.585   .     S
Si17   C92     1.919   .     S
Si17   C93     1.809   .     S
Si17   O94     1.567   .     S
Si17   O149    1.646   .     S
Si18   O94     1.607   .     S
Si18   C95     1.911   .     S
Si18   C111    1.875   1_554 S
Si18   O167    1.616   1_554 S
Si19   O96     1.597   .     S
Si19   O97     1.552   .     S
Si19   O104    1.608   .     S
Si19   O156    1.621   .     S
Si20   C99     1.874   .     S
Si20   C100    1.813   .     S
Si20   C101    1.860   .     S
Si20   O102    1.571   .     S
Si21   C103    1.810   .     S
Si21   O104    1.620   .     S
Si21   C105    1.835   .     S
Si21   O150    1.601   .     S
Si22   C106    1.927   .     S
Si22   O107    1.609   .     S
Si22   C108    1.839   .     S
Si22   O165    1.624   .     S
Si23   C109    1.899   .     S
Si23   C110    1.834   .     S
Si23   C112    1.939   .     S
Si23   O120    1.601   .     S
Si24   C113    1.849   .     S
Si24   C114    1.828   .     S
Si24   C115    1.924   .     S
Si24   O116    1.582   .     S
Si25   C117    1.939   .     S
Si25   C118    1.866   .     S
Si25   C119    1.836   .     S
Si25   O176    1.572   .     S
Si26   O120    1.618   .     S
Si26   C121    1.911   .     S
Si26   C122    1.857   .     S
Si26   C123    1.817   .     S
Si27   C124    1.881   .     S
Si27   C125    1.858   .     S
Si27   O126    1.582   .     S
Si27   C127    1.791   .     S
Si28   C128    1.841   .     S
Si28   C129    1.823   .     S
Si28   O175    1.625   1_545 S
Si28   O179    1.591   1_545 S
Si29   C131    1.810   .     S
Si29   C132    1.905   .     S
Si29   C133    1.729   .     S
Si29   O139    1.620   .     S
Si30   O135    1.639   .     S
Si30   O140    1.613   .     S
Si30   O185    1.615   1_545 S
Si30   O190    1.601   1_545 S
Si31   C136    1.859   .     S
Si31   O137    1.585   .     S
Si31   O147    1.569   .     S
Si31   O153    1.584   .     S
Si32   O138    1.605   .     S
Si32   O139    1.623   .     S
Si32   O140    1.586   .     S
Si32   O154    1.623   .     S
Si33   C141    1.845   .     S
Si33   O148    1.610   .     S
Si33   C142    1.848   1_545 S
Si33   O197    1.640   1_545 S
Si34   O143    1.588   .     S
Si34   C144    1.834   .     S
Si34   C145    1.947   .     S
Si34   C161    1.898   .     S
Si35   O146    1.638   .     S
Si35   O147    1.588   .     S
Si35   O148    1.610   .     S
Si35   O163    1.531   .     S
Si36   O149    1.592   .     S
Si36   O150    1.534   .     S
Si36   O159    1.591   .     S
Si36   O171    1.518   .     S
Si37   C152    1.839   .     S
Si37   O172    1.560   .     S
Si37   C151    1.869   1_554 S
Si37   O166    1.554   1_554 S
Si38   O153    1.553   .     S
Si38   O154    1.581   .     S
Si38   C155    1.843   .     S
Si38   O160    1.585   .     S
Si39   O156    1.618   .     S
Si39   C157    1.843   .     S
Si39   O169    1.581   .     S
Si39   O181    1.574   .     S
Si40   O158    1.585   .     S
Si40   O159    1.583   .     S
Si40   O160    1.682   .     S
Si40   O182    1.586   .     S
Si41   C162    1.851   .     S
Si41   O163    1.584   .     S
Si41   C164    1.848   .     S
Si41   O170    1.647   .     S
Si42   O165    1.627   .     S
Si42   O166    1.596   .     S
Si42   O167    1.578   .     S
Si42   O191    1.585   .     S
Si43   C168    1.903   .     S
Si43   O169    1.638   .     S
Si43   O170    1.626   .     S
Si43   O192    1.656   .     S
Si44   O171    1.618   .     S
Si44   O172    1.576   .     S
Si44   O173    1.612   .     S
Si44   O178    1.592   .     S
Si45   C174    1.798   .     S
Si45   O175    1.638   .     S
Si45   O176    1.623   .     S
Si45   O188    1.612   .     S
Si46   O178    1.564   .     S
Si46   O179    1.623   .     S
Si46   C177    1.905   1_554 S
Si46   C180    1.937   1_554 S
Si47   O181    1.584   .     S
Si47   O182    1.577   .     S
Si47   C183    1.789   .     S
Si47   O189    1.608   .     S
Si48   C184    1.865   .     S
Si48   O185    1.552   .     S
Si48   C186    1.899   .     S
Si48   O195    1.603   .     S
Si49   O187    1.567   .     S
Si49   O188    1.638   .     S
Si49   O189    1.621   .     S
Si49   O190    1.642   .     S
Si50   O191    1.644   .     S
Si50   O192    1.639   .     S
Si50   C193    1.911   .     S
Si50   O196    1.627   .     S
Si51   C194    1.909   .     S
Si51   O195    1.597   .     S
Si51   O196    1.647   .     S
Si51   O197    1.628   .     S
C52    H198    1.091   .     S
C52    H199    1.120   .     S
C52    H200    1.114   .     S
C53    H201    1.098   .     S
C53    H202    1.065   .     S
C53    H203    1.107   .     S
C53    Si2     1.892   1_556 S
C54    H204    1.070   .     S
C54    H205    1.090   .     S
C54    H206    1.104   .     S
C54    Si2     1.866   1_556 S
C55    H207    1.105   .     S
C55    H208    1.074   .     S
C55    H209    1.077   .     S
C56    H210    1.063   .     S
C56    H211    1.045   .     S
C56    H212    1.165   .     S
C57    H213    1.121   .     S
C57    H214    1.149   .     S
C57    H215    1.086   .     S
C58    H216    1.122   .     S
C58    H217    1.087   .     S
C58    H218    1.088   .     S
C59    H219    1.093   .     S
C59    H220    1.165   .     S
C59    H221    1.155   .     S
C60    H222    1.127   .     S
C60    H223    1.071   .     S
C60    H224    1.072   .     S
C61    H225    1.121   .     S
C61    H226    1.102   .     S
C61    H227    1.075   .     S
C62    H228    1.128   .     S
C62    H229    1.103   .     S
C62    H230    1.146   .     S
C62    Si5     1.800   1_565 S
C65    H231    1.098   .     S
C65    H232    1.062   .     S
C65    H233    1.075   .     S
C66    H234    1.044   .     S
C66    H235    1.136   .     S
C66    H236    1.067   .     S
C67    H237    1.092   .     S
C67    H238    1.142   .     S
C67    H239    1.106   .     S
C68    H240    1.112   .     S
C68    H241    1.105   .     S
C68    H242    1.099   .     S
C68    Si7     1.768   1_655 S
C71    H243    1.065   .     S
C71    H244    1.055   .     S
C71    H245    1.114   .     S
C72    H246    1.124   .     S
C72    H247    1.073   .     S
C72    H248    1.115   .     S
C74    H249    1.102   .     S
C74    H250    1.087   .     S
C74    H251    1.106   .     S
C75    H252    1.147   .     S
C75    H253    1.127   .     S
C75    H254    1.080   .     S
C76    H255    1.075   .     S
C76    H256    1.041   .     S
C76    H257    1.139   .     S
C77    H258    1.161   .     S
C77    H259    1.086   .     S
C77    H260    1.154   .     S
C78    H261    1.113   .     S
C78    H262    1.121   .     S
C78    H263    1.122   .     S
C79    H264    1.134   .     S
C79    H265    1.049   .     S
C79    H266    1.190   .     S
C80    H267    1.090   .     S
C80    H268    1.132   .     S
C80    H269    1.130   .     S
C81    H270    1.131   .     S
C81    H271    1.116   .     S
C81    H272    1.112   .     S
C82    H273    1.157   .     S
C82    H274    1.133   .     S
C82    H275    1.114   .     S
O83    Si5     1.629   1_565 S
C84    H276    1.129   .     S
C84    H277    1.061   .     S
C84    H278    1.079   .     S
C85    H279    1.113   .     S
C85    H280    1.037   .     S
C85    H281    1.089   .     S
C86    H282    1.081   .     S
C86    H283    1.080   .     S
C86    H284    1.099   .     S
C87    H285    1.076   .     S
C87    H286    1.095   .     S
C87    H287    1.111   .     S
C88    H288    1.056   .     S
C88    H289    1.152   .     S
C88    H290    1.115   .     S
C88    Si15    1.815   1_565 S
C90    H291    1.077   .     S
C90    H292    1.131   .     S
C90    H293    1.086   .     S
C91    H294    1.067   .     S
C91    H295    1.095   .     S
C91    H296    1.154   .     S
C92    H297    1.079   .     S
C92    H298    1.110   .     S
C92    H299    1.084   .     S
C93    H300    1.112   .     S
C93    H301    1.083   .     S
C93    H302    1.082   .     S
C95    H303    1.112   .     S
C95    H304    1.097   .     S
C95    H305    1.109   .     S
C98    H306    1.145   .     S
C98    H307    1.139   .     S
C98    H308    1.078   .     S
C99    H309    1.171   .     S
C99    H310    1.126   .     S
C99    H311    1.124   .     S
C100   H312    1.100   .     S
C100   H313    1.156   .     S
C100   H314    1.183   .     S
C101   H315    1.170   .     S
C101   H316    1.110   .     S
C101   H317    1.063   .     S
C103   H318    1.165   .     S
C103   H319    1.156   .     S
C103   H320    1.103   .     S
C105   H321    1.092   .     S
C105   H322    1.104   .     S
C105   H323    1.114   .     S
C106   H324    1.128   .     S
C106   H325    1.103   .     S
C106   H326    1.119   .     S
C108   H327    1.150   .     S
C108   H328    1.110   .     S
C108   H329    1.124   .     S
C109   H330    1.055   .     S
C109   H331    1.119   .     S
C109   H332    1.138   .     S
C110   H333    1.090   .     S
C110   H334    1.130   .     S
C110   H335    1.118   .     S
C111   H336    1.131   .     S
C111   H337    1.131   .     S
C111   H338    1.128   .     S
C111   Si18    1.875   1_556 S
C112   H339    1.091   .     S
C112   H340    1.112   .     S
C112   H341    1.123   .     S
C113   H342    1.093   .     S
C113   H343    1.142   .     S
C113   H344    1.141   .     S
C114   H345    1.143   .     S
C114   H346    1.110   .     S
C114   H347    1.080   .     S
C115   H348    1.057   .     S
C115   H349    1.170   .     S
C115   H350    1.113   .     S
C117   H351    1.095   .     S
C117   H352    1.130   .     S
C117   H353    1.109   .     S
C118   H354    1.046   .     S
C118   H355    1.064   .     S
C118   H356    1.118   .     S
C119   H357    1.054   .     S
C119   H358    1.183   .     S
C119   H359    1.090   .     S
C121   H360    1.140   .     S
C121   H361    1.146   .     S
C121   H362    1.116   .     S
C122   H363    1.158   .     S
C122   H364    1.108   .     S
C122   H365    1.072   .     S
C123   H366    1.104   .     S
C123   H367    1.089   .     S
C123   H368    1.060   .     S
C124   H369    1.129   .     S
C124   H370    1.087   .     S
C124   H371    1.174   .     S
C125   H372    1.153   .     S
C125   H373    1.088   .     S
C125   H374    1.089   .     S
O126   Si15    1.608   1_565 S
C127   H375    1.113   .     S
C127   H376    1.077   .     S
C127   H377    1.115   .     S
C128   H378    1.083   .     S
C128   H379    1.119   .     S
C128   H380    1.084   .     S
C129   H381    1.064   .     S
C129   H382    1.140   .     S
C129   H383    1.131   .     S
C130   H384    1.080   .     S
C130   H385    1.177   .     S
C130   H386    1.091   .     S
C130   Si1     1.902   1_655 S
C131   H387    1.098   .     S
C131   H388    1.125   .     S
C131   H389    1.120   .     S
C132   H390    1.118   .     S
C132   H391    1.160   .     S
C132   H392    1.140   .     S
C133   H393    1.155   .     S
C133   H394    1.073   .     S
C133   H395    1.113   .     S
C134   H396    1.099   .     S
C134   H397    1.116   .     S
C134   H398    1.059   .     S
O135   Si3     1.613   1_655 S
C136   H399    1.093   .     S
C136   H400    1.080   .     S
C136   H401    1.134   .     S
O138   Si1     1.580   1_655 S
C141   H402    1.020   .     S
C141   H403    1.099   .     S
C141   H404    1.118   .     S
C142   H405    1.085   .     S
C142   H406    1.105   .     S
C142   H407    1.071   .     S
C142   Si33    1.848   1_565 S
C144   H408    1.087   .     S
C144   H409    1.143   .     S
C144   H410    1.098   .     S
C145   H411    1.114   .     S
C145   H412    1.196   .     S
C145   H413    1.102   .     S
O146   Si3     1.604   1_655 S
C151   H414    1.139   .     S
C151   H415    1.128   .     S
C151   H416    1.122   .     S
C151   Si37    1.869   1_556 S
C152   H417    1.093   .     S
C152   H418    1.097   .     S
C152   H419    1.035   .     S
C155   H420    1.114   .     S
C155   H421    1.106   .     S
C155   H422    1.101   .     S
C157   H423    1.144   .     S
C157   H424    1.120   .     S
C157   H425    1.123   .     S
O158   Si7     1.599   1_655 S
C161   H426    1.135   .     S
C161   H427    1.103   .     S
C161   H428    1.129   .     S
C162   H429    1.086   .     S
C162   H430    1.156   .     S
C162   H431    1.097   .     S
C164   H432    1.116   .     S
C164   H433    1.128   .     S
C164   H434    1.077   .     S
O166   Si37    1.554   1_556 S
O167   Si18    1.616   1_556 S
C168   H435    1.096   .     S
C168   H436    1.086   .     S
C168   H437    1.118   .     S
O173   Si11    1.612   1_655 S
C174   H438    1.145   .     S
C174   H439    1.161   .     S
C174   H440    1.125   .     S
O175   Si28    1.625   1_565 S
C177   H441    1.079   .     S
C177   H442    1.108   .     S
C177   H443    1.081   .     S
C177   Si46    1.905   1_556 S
O179   Si28    1.591   1_565 S
C180   H444    1.118   .     S
C180   H445    1.064   .     S
C180   H446    1.101   .     S
C180   Si46    1.937   1_556 S
C183   H447    1.100   .     S
C183   H448    1.109   .     S
C183   H449    1.132   .     S
C184   H450    1.106   .     S
C184   H451    1.066   .     S
C184   H452    1.112   .     S
O185   Si30    1.615   1_565 S
C186   H453    1.093   .     S
C186   H454    1.041   .     S
C186   H455    1.125   .     S
O187   Si11    1.596   1_655 S
O190   Si30    1.601   1_565 S
C193   H456    1.079   .     S
C193   H457    1.086   .     S
C193   H458    1.042   .     S
C194   H459    1.110   .     S
C194   H460    1.088   .     S
C194   H461    1.120   .     S
O197   Si33    1.640   1_565 S
