data_333-9-11-16-15-30-7
_audit_creation_date              2025-03-07
_audit_creation_method            'Materials Studio'
_symmetry_space_group_name_H-M    'P1'
_symmetry_Int_Tables_number       1
_symmetry_cell_setting            triclinic
loop_
_symmetry_equiv_pos_as_xyz
  x,y,z
_cell_length_a                    18.5628
_cell_length_b                    17.3452
_cell_length_c                    18.6377
_cell_angle_alpha                 81.2601
_cell_angle_beta                  98.8539
_cell_angle_gamma                 126.9809
loop_
_atom_site_label
_atom_site_type_symbol
_atom_site_fract_x
_atom_site_fract_y
_atom_site_fract_z
_atom_site_U_iso_or_equiv
_atom_site_adp_type
_atom_site_occupancy
Si1    Si    0.08039   0.18636   0.19619   0.00000  Uiso   1.00
Si2    Si    0.15164   0.03801   0.47611   0.00000  Uiso   1.00
Si3    Si    0.00018   0.13180   0.55020   0.00000  Uiso   1.00
Si4    Si    0.15619   0.17932   0.35200   0.00000  Uiso   1.00
Si5    Si    0.01176  -0.15494   0.75000   0.00000  Uiso   1.00
Si6    Si    0.07743   0.04919   0.67971   0.00000  Uiso   1.00
Si7    Si    0.03084   0.50722   0.20980   0.00000  Uiso   1.00
Si8    Si    0.18799   0.52377   0.02338   0.00000  Uiso   1.00
Si9    Si    0.13011   0.29915   0.43755   0.00000  Uiso   1.00
Si10   Si   -0.12025   0.47992   0.56333   0.00000  Uiso   1.00
Si11   Si    0.12713   0.45217   0.33258   0.00000  Uiso   1.00
Si12   Si    0.12766   0.52528   0.86079   0.00000  Uiso   1.00
Si13   Si    0.19427   0.66767   0.11078   0.00000  Uiso   1.00
Si14   Si    0.15350   0.77717  -0.01329   0.00000  Uiso   1.00
Si15   Si    0.24402   0.65104   0.39923   0.00000  Uiso   1.00
Si16   Si    0.27280   0.82000   0.30061   0.00000  Uiso   1.00
Si17   Si    0.00584   0.80289   0.91833   0.00000  Uiso   1.00
Si18   Si    0.52683   0.05530   0.10834   0.00000  Uiso   1.00
Si19   Si    0.48060   0.19192   0.02847   0.00000  Uiso   1.00
Si20   Si    0.25505   0.12610   0.61728   0.00000  Uiso   1.00
Si21   Si    0.30183   0.15989   1.00523   0.00000  Uiso   1.00
Si22   Si    0.54622   0.36309   0.10865   0.00000  Uiso   1.00
Si23   Si    0.48136   0.49399   0.03477   0.00000  Uiso   1.00
Si24   Si    0.51538   0.31840   0.42376   0.00000  Uiso   1.00
Si25   Si    0.22443   0.43528   0.55450   0.00000  Uiso   1.00
Si26   Si    0.48417   0.47148   0.36145   0.00000  Uiso   1.00
Si27   Si    0.36929   0.28715   0.86542   0.00000  Uiso   1.00
Si28   Si    0.30110   0.46214   0.99140   0.00000  Uiso   1.00
Si29   Si    0.55551   0.68644   0.09695   0.00000  Uiso   1.00
Si30   Si    0.38356   0.84868   0.18213   0.00000  Uiso   1.00
Si31   Si    0.51574   1.01251   0.58854   0.00000  Uiso   1.00
Si32   Si    0.54393   0.85640   0.24948   0.00000  Uiso   1.00
Si33   Si    0.28530   0.83365   0.87624   0.00000  Uiso   1.00
Si34   Si    0.52725   0.88107   0.70958   0.00000  Uiso   1.00
Si35   Si    0.97686   0.04562   0.07717   0.00000  Uiso   1.00
Si36   Si    0.70292   0.19128   0.19922   0.00000  Uiso   1.00
Si37   Si    0.77574   0.24230  -0.01658   0.00000  Uiso   1.00
Si38   Si    0.85511  -0.00804   0.43778   0.00000  Uiso   1.00
Si39   Si    0.61025   0.23408   0.91644   0.00000  Uiso   1.00
Si40   Si    0.90283   0.17136   0.64463   0.00000  Uiso   1.00
Si41   Si    0.85646   0.37514   0.11068   0.00000  Uiso   1.00
Si42   Si    0.73634   0.51958   0.17599   0.00000  Uiso   1.00
Si43   Si    0.85120   0.39958   0.41671   0.00000  Uiso   1.00
Si44   Si    0.89616   0.53319   0.27277   0.00000  Uiso   1.00
Si45   Si    0.55068   0.47822   0.90093   0.00000  Uiso   1.00
Si46   Si    0.87790   0.72949   0.12296   0.00000  Uiso   1.00
Si47   Si    0.94689   0.88893   0.00601   0.00000  Uiso   1.00
Si48   Si    0.97042   0.69750   0.36947   0.00000  Uiso   1.00
Si49   Si    0.55484   0.58141   0.74982   0.00000  Uiso   1.00
Si50   Si    0.79638   0.86586   0.89873   0.00000  Uiso   1.00
Si51   Si    0.67155   0.69836   0.62870   0.00000  Uiso   1.00
C52    C     0.18790   0.29842   0.16667   0.00000  Uiso   1.00
C53    C     0.99334   0.21168   0.19127   0.00000  Uiso   1.00
C54    C     0.05191   0.91958   0.51293   0.00000  Uiso   1.00
O55    O     0.09294   0.15814   0.28025   0.00000  Uiso   1.00
O56    O     0.11922   0.08578   0.41036   0.00000  Uiso   1.00
C57    C     0.27056   0.22241   0.33716   0.00000  Uiso   1.00
C58    C    -0.10087   0.72927   0.72928   0.00000  Uiso   1.00
O59    O     0.04434   0.08441   0.60418   0.00000  Uiso   1.00
O60    O     0.01742  -0.06346   0.70345   0.00000  Uiso   1.00
C61    C     0.07571   0.10604   0.75337   0.00000  Uiso   1.00
C62    C     0.07224   0.41839   0.05331   0.00000  Uiso   1.00
O63    O     0.05518   0.20483   0.48489   0.00000  Uiso   1.00
O64    O     0.16656   0.26116   0.38991   0.00000  Uiso   1.00
C65    C     0.00183   0.52957   0.59795   0.00000  Uiso   1.00
C66    C     0.80190   0.36319   0.61785   0.00000  Uiso   1.00
O67    O     0.05067   0.45032   0.27491   0.00000  Uiso   1.00
O68    O     0.09372   0.35412   0.38152   0.00000  Uiso   1.00
C69    C     0.21896   0.47944   0.27501   0.00000  Uiso   1.00
O70    O     0.18622   0.55913   0.93770   0.00000  Uiso   1.00
C71    C     0.20899   0.58411   0.79079   0.00000  Uiso   1.00
C72    C     1.04027   0.54799   0.85072   0.00000  Uiso   1.00
C73    C     1.06449   0.39336   0.85451   0.00000  Uiso   1.00
O74    O     0.12265   0.60074   0.17352   0.00000  Uiso   1.00
O75    O     0.21881   0.60576   0.07857   0.00000  Uiso   1.00
O76    O     0.14266   0.69570   0.04556   0.00000  Uiso   1.00
C77    C     0.24348   0.89858   0.02263   0.00000  Uiso   1.00
C78    C    -0.14528   0.56145   0.58626   0.00000  Uiso   1.00
C79    C     0.24364   0.69023   0.48608   0.00000  Uiso   1.00
O80    O     0.16842   0.53800   0.38548   0.00000  Uiso   1.00
C81    C     0.19479   0.83628   0.23374   0.00000  Uiso   1.00
O82    O     0.22666   0.71298   0.33655   0.00000  Uiso   1.00
C83    C     0.32888   0.91195   0.37005   0.00000  Uiso   1.00
C84    C     0.23422   1.02339   0.44375   0.00000  Uiso   1.00
O85    O     0.06505   0.77137   0.95819   0.00000  Uiso   1.00
O86    O     0.03034   0.85423   0.83661   0.00000  Uiso   1.00
C87    C     0.52835   1.00974   0.02388   0.00000  Uiso   1.00
O88    O     0.50690   0.13457   0.09126   0.00000  Uiso   1.00
O89    O     0.21477   0.11588   0.53601   0.00000  Uiso   1.00
C90    C     0.30715   0.06357   0.64644   0.00000  Uiso   1.00
O91    O     0.17804   0.08296   0.67086   0.00000  Uiso   1.00
C92    C     0.10605  -0.15422   0.72974   0.00000  Uiso   1.00
C93    C     0.18630   0.06302   0.96618   0.00000  Uiso   1.00
O94    O     0.37318   0.13418   1.01843   0.00000  Uiso   1.00
C95    C     0.27928   0.18625   1.09015   0.00000  Uiso   1.00
C96    C     0.49962   0.28602   0.19087   0.00000  Uiso   1.00
O97    O     0.52341   0.30055   0.04387   0.00000  Uiso   1.00
O98    O     0.50656   0.42690   0.08871   0.00000  Uiso   1.00
C99    C     0.34457   0.25570   0.63421   0.00000  Uiso   1.00
C100   C     0.47223   0.20233   0.38183   0.00000  Uiso   1.00
C101   C     0.64039   0.38818   0.45575   0.00000  Uiso   1.00
C102   C     0.47051   0.29204   0.51203   0.00000  Uiso   1.00
O103   O     0.20901   0.37457   0.48992   0.00000  Uiso   1.00
C104   C     0.21259   0.36601   0.64297   0.00000  Uiso   1.00
C105   C     0.33534   0.54962   0.57055   0.00000  Uiso   1.00
C106   C     0.13544   0.45010   0.55199   0.00000  Uiso   1.00
C107   C     0.44907   0.48860   0.26949   0.00000  Uiso   1.00
O108   O     0.49891   0.38790   0.36979   0.00000  Uiso   1.00
C109   C     0.39438   0.43450   0.42152   0.00000  Uiso   1.00
O110   O     0.33291   0.24718   0.94534   0.00000  Uiso   1.00
C111   C     0.34877   0.19056   0.81754   0.00000  Uiso   1.00
C112   C     0.31493   0.34321   0.81297   0.00000  Uiso   1.00
C113   C     0.20901   0.34381   0.95359   0.00000  Uiso   1.00
O114   O     0.37783   0.45260   1.03610   0.00000  Uiso   1.00
C115   C     0.36560   0.55809   0.92019   0.00000  Uiso   1.00
O116   O     0.25345   0.49303   1.03582   0.00000  Uiso   1.00
C117   C     0.44548   0.64221   0.12212   0.00000  Uiso   1.00
O118   O     0.54446   0.59889   0.06292   0.00000  Uiso   1.00
C119   C     0.57782   0.78477   0.02420   0.00000  Uiso   1.00
C120   C     0.64581   0.72222   0.17082   0.00000  Uiso   1.00
O121   O     0.29270   0.77327   0.13363   0.00000  Uiso   1.00
O122   O     0.44494   0.96061   0.14935   0.00000  Uiso   1.00
O123   O     0.35446   0.85180   0.25781   0.00000  Uiso   1.00
C124   C     0.35809   0.69014   0.39319   0.00000  Uiso   1.00
C125   C     0.39353   0.93942   0.59448   0.00000  Uiso   1.00
C126   C     0.54825   1.00929   0.49761   0.00000  Uiso   1.00
C127   C     0.56866   1.13630   0.60102   0.00000  Uiso   1.00
O128   O     0.44773   0.81510   0.20406   0.00000  Uiso   1.00
C129   C     0.53122   0.75451   0.31093   0.00000  Uiso   1.00
C130   C     0.57037   0.94535   0.31185   0.00000  Uiso   1.00
C131   C     0.63670   0.91339   0.18606   0.00000  Uiso   1.00
C132   C     0.26955   0.80277   0.78182   0.00000  Uiso   1.00
C133   C     0.36014   0.80713   0.92716   0.00000  Uiso   1.00
C134   C     0.33707   0.96579   0.86901   0.00000  Uiso   1.00
O135   O     0.19500   0.77723   0.91728   0.00000  Uiso   1.00
O136   O     0.55150   0.96852   0.65027   0.00000  Uiso   1.00
C137   C     0.41352   0.76156   0.68772   0.00000  Uiso   1.00
C138   C     0.53202   0.91051   0.80135   0.00000  Uiso   1.00
C139   C     0.61867   0.86121   0.71632   0.00000  Uiso   1.00
O140   O     1.04425   0.10104   0.14634   0.00000  Uiso   1.00
C141   C     0.85620   0.98288   0.10569   0.00000  Uiso   1.00
O142   O     0.62658   0.10864   0.14672   0.00000  Uiso   1.00
C143   C     0.77369   0.15441   0.24704   0.00000  Uiso   1.00
C144   C     0.64112   0.19826   0.26424   0.00000  Uiso   1.00
C145   C     0.82835   0.29537   0.89641   0.00000  Uiso   1.00
C146   C     0.98661   0.12963  -0.00186   0.00000  Uiso   1.00
C147   C     0.76019   0.12352   0.00289   0.00000  Uiso   1.00
C148   C     0.88804   0.08286   0.35966   0.00000  Uiso   1.00
O149   O     0.90743   0.03943   0.51250   0.00000  Uiso   1.00
C150   C     0.72808   0.92801   0.43697   0.00000  Uiso   1.00
C151   C     0.88217   0.91605   0.41034   0.00000  Uiso   1.00
C152   C     0.57187   0.14957   0.84712   0.00000  Uiso   1.00
O153   O     0.68284   0.23686   0.97377   0.00000  Uiso   1.00
C154   C     0.66620   0.35421   0.86124   0.00000  Uiso   1.00
O155   O     0.51889   0.20290   0.95015   0.00000  Uiso   1.00
O156   O     0.97614   0.18306   0.59554   0.00000  Uiso   1.00
C157   C     0.79443   0.11698   0.58735   0.00000  Uiso   1.00
C158   C     0.88045   0.08680   0.73001   0.00000  Uiso   1.00
C159   C     0.94817   0.29303   0.66924   0.00000  Uiso   1.00
O160   O     0.77245   0.29872   0.15942   0.00000  Uiso   1.00
O161   O     0.84631   0.31127   0.04827   0.00000  Uiso   1.00
C162   C     0.84602   0.46989   0.06048   0.00000  Uiso   1.00
O163   O     0.96148   0.43294   0.15131   0.00000  Uiso   1.00
O164   O     0.65628   0.43517   0.12610   0.00000  Uiso   1.00
C165   C     0.67767   0.52233   0.24751   0.00000  Uiso   1.00
C166   C     0.58896   0.58199   0.38932   0.00000  Uiso   1.00
C167   C     0.74324   0.27499   0.43022   0.00000  Uiso   1.00
C168   C     0.94401   0.38479   0.43290   0.00000  Uiso   1.00
O169   O     0.86577   0.46554   0.47685   0.00000  Uiso   1.00
O170   O     0.98140   0.54350   0.24251   0.00000  Uiso   1.00
O171   O     0.81005   0.50157   0.21028   0.00000  Uiso   1.00
O172   O     0.85404   0.44516   0.33481   0.00000  Uiso   1.00
O173   O     0.47533   0.37226   0.87818   0.00000  Uiso   1.00
C174   C     0.65345   0.49489   0.95291   0.00000  Uiso   1.00
O175   O     0.50618   0.50350   0.95295   0.00000  Uiso   1.00
O176   O     0.78800   0.62113   0.12621   0.00000  Uiso   1.00
C177   C     0.98291   0.73662   0.12951   0.00000  Uiso   1.00
C178   C     0.88262   0.79252   0.19638   0.00000  Uiso   1.00
O179   O     1.00729   0.87003   0.96645   0.00000  Uiso   1.00
O180   O     0.87754   0.79093   0.04962   0.00000  Uiso   1.00
O181   O     0.99550   0.97525   0.05613   0.00000  Uiso   1.00
C182   C     0.87304   0.67506   0.41527   0.00000  Uiso   1.00
O183   O     0.93750   0.63599   0.30204   0.00000  Uiso   1.00
C184   C     1.03517   0.82342   0.32962   0.00000  Uiso   1.00
C185   C     1.05616   0.69366   0.43776   0.00000  Uiso   1.00
O186   O     0.58244   0.55533   0.83229   0.00000  Uiso   1.00
C187   C     0.46770   0.60219   0.74152   0.00000  Uiso   1.00
C188   C     0.49503   0.47068   0.69530   0.00000  Uiso   1.00
C189   C     0.88669   0.68860   0.91680   0.00000  Uiso   1.00
C190   C     0.71066   0.75258   0.94168   0.00000  Uiso   1.00
O191   O     0.89267   0.90734   0.94069   0.00000  Uiso   1.00
C192   C     0.79671   0.84364   0.80599   0.00000  Uiso   1.00
C193   C     0.76733   0.94651   0.90671   0.00000  Uiso   1.00
C194   C     0.71472   0.62800   0.60956   0.00000  Uiso   1.00
C195   C     0.58322   0.67816   0.55421   0.00000  Uiso   1.00
O196   O     0.63670   0.66598   0.70816   0.00000  Uiso   1.00
C197   C     0.76808   0.82607   0.61725   0.00000  Uiso   1.00
H198   H     0.22577   0.27277   0.15705   0.00000  Uiso   1.00
H199   H     0.22002   0.34242   0.21221   0.00000  Uiso   1.00
H200   H     0.16904   0.33206   0.12060   0.00000  Uiso   1.00
H201   H     1.02377   0.27802   0.21882   0.00000  Uiso   1.00
H202   H     0.93285   0.14490   0.21538   0.00000  Uiso   1.00
H203   H     0.96773   0.22516   0.13592   0.00000  Uiso   1.00
H204   H     0.00866   0.93175   0.53752   0.00000  Uiso   1.00
H205   H     0.07310   0.88768   0.56055   0.00000  Uiso   1.00
H206   H     0.00990   0.87233   0.46643   0.00000  Uiso   1.00
H207   H     0.30195   0.22055   0.39341   0.00000  Uiso   1.00
H208   H     0.30614   0.28891   0.29892   0.00000  Uiso   1.00
H209   H     0.26153   0.16715   0.30923   0.00000  Uiso   1.00
H210   H    -0.09764   0.72792   0.67074   0.00000  Uiso   1.00
H211   H    -0.16025   0.73097   0.73515   0.00000  Uiso   1.00
H212   H    -0.11640   0.66185   0.76094   0.00000  Uiso   1.00
H213   H     0.13946   0.13313   0.79338   0.00000  Uiso   1.00
H214   H     0.00801   0.04433   0.78310   0.00000  Uiso   1.00
H215   H     0.07551   0.16660   0.73116   0.00000  Uiso   1.00
H216   H     0.04000   0.34881   0.03015   0.00000  Uiso   1.00
H217   H     0.01928   0.43624   0.04035   0.00000  Uiso   1.00
H218   H     0.07744   0.40575   0.11286   0.00000  Uiso   1.00
H219   H     0.03913   0.52729   0.55508   0.00000  Uiso   1.00
H220   H     0.00665   0.48609   0.64529   0.00000  Uiso   1.00
H221   H     0.04469   0.60387   0.61339   0.00000  Uiso   1.00
H222   H     0.81393   0.36127   0.68000   0.00000  Uiso   1.00
H223   H     0.80364   0.30487   0.60340   0.00000  Uiso   1.00
H224   H     0.73129   0.34682   0.60457   0.00000  Uiso   1.00
H225   H     0.25386   0.55313   0.24428   0.00000  Uiso   1.00
H226   H     0.18127   0.42598   0.23417   0.00000  Uiso   1.00
H227   H     0.26934   0.47479   0.30663   0.00000  Uiso   1.00
H228   H     0.21255   0.52646   0.77401   0.00000  Uiso   1.00
H229   H     0.27741   0.64813   0.81246   0.00000  Uiso   1.00
H230   H     0.17344   0.59896   0.74701   0.00000  Uiso   1.00
H231   H     1.01267   0.53706   0.79093   0.00000  Uiso   1.00
H232   H     1.06328   0.61735   0.87052   0.00000  Uiso   1.00
H233   H     0.99137   0.48930   0.88829   0.00000  Uiso   1.00
H234   H     1.05115   0.34874   0.90737   0.00000  Uiso   1.00
H235   H     1.09389   0.37363   0.82122   0.00000  Uiso   1.00
H236   H     0.99865   0.36952   0.82246   0.00000  Uiso   1.00
H237   H     0.23415   0.90625   0.07498   0.00000  Uiso   1.00
H238   H     0.25547   0.95837  -0.01851   0.00000  Uiso   1.00
H239   H     0.30481   0.90566   0.02917   0.00000  Uiso   1.00
H240   H    -0.08961   0.63721   0.57318   0.00000  Uiso   1.00
H241   H    -0.17071   0.54275   0.63590   0.00000  Uiso   1.00
H242   H    -0.20337   0.55585   0.55477   0.00000  Uiso   1.00
H243   H     0.28463   0.67662   0.52799   0.00000  Uiso   1.00
H244   H     0.17798   0.65548   0.50638   0.00000  Uiso   1.00
H245   H     0.27755   0.76883   0.47445   0.00000  Uiso   1.00
H246   H     0.22466   0.91349   0.23268   0.00000  Uiso   1.00
H247   H     0.12868   0.78935   0.25270   0.00000  Uiso   1.00
H248   H     0.18796   0.81691   0.18209   0.00000  Uiso   1.00
H249   H     0.28921   0.89529   0.41662   0.00000  Uiso   1.00
H250   H     0.34557   0.97803   0.34142   0.00000  Uiso   1.00
H251   H     0.39062   0.92042   0.40217   0.00000  Uiso   1.00
H252   H     0.30655   1.07717   0.46450   0.00000  Uiso   1.00
H253   H     0.22352   1.02483   0.38338   0.00000  Uiso   1.00
H254   H     0.21407   0.94863   0.46376   0.00000  Uiso   1.00
H255   H     0.58970   1.05639  -0.00517   0.00000  Uiso   1.00
H256   H     0.47269   1.00145  -0.01719   0.00000  Uiso   1.00
H257   H     0.51299   0.93618   0.03481   0.00000  Uiso   1.00
H258   H     0.31538   0.06225   0.70670   0.00000  Uiso   1.00
H259   H     0.37337   0.10638   0.61973   0.00000  Uiso   1.00
H260   H     0.25788  -0.00955   0.62443   0.00000  Uiso   1.00
H261   H     0.10304  -0.16234   0.67198   0.00000  Uiso   1.00
H262   H     0.10217  -0.21194   0.76644   0.00000  Uiso   1.00
H263   H     0.16179  -0.08454   0.74210   0.00000  Uiso   1.00
H264   H     0.15276   0.09905   0.94516   0.00000  Uiso   1.00
H265   H     0.14732   0.00248   1.00666   0.00000  Uiso   1.00
H266   H     0.18801   0.03319   0.91722   0.00000  Uiso   1.00
H267   H     0.33579   0.26454   1.09924   0.00000  Uiso   1.00
H268   H     0.28143   0.13566   1.13200   0.00000  Uiso   1.00
H269   H     0.20810   0.16404   1.08652   0.00000  Uiso   1.00
H270   H     0.46933   0.21179   0.17430   0.00000  Uiso   1.00
H271   H     0.44067   0.28440   0.19972   0.00000  Uiso   1.00
H272   H     0.54229   0.30158   0.24054   0.00000  Uiso   1.00
H273   H     0.32321   0.27471   0.67589   0.00000  Uiso   1.00
H274   H     0.33905   0.29452   0.58508   0.00000  Uiso   1.00
H275   H     0.41472   0.27230   0.65011   0.00000  Uiso   1.00
H276   H     0.41649   0.18830   0.33932   0.00000  Uiso   1.00
H277   H     0.43872   0.14015   0.42112   0.00000  Uiso   1.00
H278   H     0.52345   0.20218   0.35489   0.00000  Uiso   1.00
H279   H     0.65676   0.34143   0.48680   0.00000  Uiso   1.00
H280   H     0.66843   0.45150   0.48502   0.00000  Uiso   1.00
H281   H     0.67530   0.41764   0.41023   0.00000  Uiso   1.00
H282   H     0.49579   0.36591   0.52317   0.00000  Uiso   1.00
H283   H     0.49040   0.25131   0.55373   0.00000  Uiso   1.00
H284   H     0.39491   0.24049   0.50937   0.00000  Uiso   1.00
H285   H     0.24163   0.32448   0.64819   0.00000  Uiso   1.00
H286   H     0.13560   0.31227   0.64796   0.00000  Uiso   1.00
H287   H     0.24200   0.41849   0.68336   0.00000  Uiso   1.00
H288   H     0.35448   0.60066   0.52037   0.00000  Uiso   1.00
H289   H     0.39047   0.54151   0.58895   0.00000  Uiso   1.00
H290   H     0.33400   0.58879   0.61010   0.00000  Uiso   1.00
H291   H     0.07302   0.37623   0.54744   0.00000  Uiso   1.00
H292   H     0.13054   0.49303   0.50490   0.00000  Uiso   1.00
H293   H     0.13743   0.47344   0.60564   0.00000  Uiso   1.00
H294   H     0.47913   0.47669   0.23056   0.00000  Uiso   1.00
H295   H     0.47328   0.56566   0.26229   0.00000  Uiso   1.00
H296   H     0.37564   0.44275   0.25471   0.00000  Uiso   1.00
H297   H     0.39859   0.50096   0.42367   0.00000  Uiso   1.00
H298   H     0.40498   0.41391   0.47757   0.00000  Uiso   1.00
H299   H     0.32887   0.37966   0.39392   0.00000  Uiso   1.00
H300   H     0.38530   0.22242   0.76677   0.00000  Uiso   1.00
H301   H     0.27357   0.13332   0.80803   0.00000  Uiso   1.00
H302   H     0.38315   0.16347   0.85273   0.00000  Uiso   1.00
H303   H     0.35059   0.41674   0.83230   0.00000  Uiso   1.00
H304   H     0.24755   0.30296   0.82726   0.00000  Uiso   1.00
H305   H     0.31401   0.34376   0.75569   0.00000  Uiso   1.00
H306   H     0.18691   0.34826   0.89333   0.00000  Uiso   1.00
H307   H     0.14928   0.31055   0.98786   0.00000  Uiso   1.00
H308   H     0.22819   0.29463   0.96129   0.00000  Uiso   1.00
H309   H     0.41092   0.55064   0.89174   0.00000  Uiso   1.00
H310   H     0.40344   0.62606   0.94819   0.00000  Uiso   1.00
H311   H     0.31843   0.55813   0.88028   0.00000  Uiso   1.00
H312   H     0.39763   0.62666   0.07118   0.00000  Uiso   1.00
H313   H     0.45644   0.69408   0.15401   0.00000  Uiso   1.00
H314   H     0.41804   0.57479   0.15272   0.00000  Uiso   1.00
H315   H     0.55459   0.75485  -0.03096   0.00000  Uiso   1.00
H316   H     0.65208   0.84739   0.02821   0.00000  Uiso   1.00
H317   H     0.53454   0.80544   0.02979   0.00000  Uiso   1.00
H318   H     0.69522   0.71055   0.15515   0.00000  Uiso   1.00
H319   H     0.62274   0.68575   0.22477   0.00000  Uiso   1.00
H320   H     0.68368   0.79885   0.17078   0.00000  Uiso   1.00
H321   H     0.37121   0.63255   0.40186   0.00000  Uiso   1.00
H322   H     0.40048   0.74312   0.43360   0.00000  Uiso   1.00
H323   H     0.37477   0.72084   0.33877   0.00000  Uiso   1.00
H324   H     0.38409   0.92971   0.65093   0.00000  Uiso   1.00
H325   H     0.34716   0.86582   0.57219   0.00000  Uiso   1.00
H326   H     0.36539   0.97673   0.56362   0.00000  Uiso   1.00
H327   H     0.51034   0.93604   0.47854   0.00000  Uiso   1.00
H328   H     0.61842   1.03704   0.50480   0.00000  Uiso   1.00
H329   H     0.54079   1.05044   0.45008   0.00000  Uiso   1.00
H330   H     0.54371   1.14492   0.64803   0.00000  Uiso   1.00
H331   H     0.55632   1.17232   0.55113   0.00000  Uiso   1.00
H332   H     0.64352   1.17045   0.60598   0.00000  Uiso   1.00
H333   H     0.45955   0.68309   0.30276   0.00000  Uiso   1.00
H334   H     0.54554   0.76836   0.36953   0.00000  Uiso   1.00
H335   H     0.58165   0.74369   0.30195   0.00000  Uiso   1.00
H336   H     0.62561   0.96872   0.34313   0.00000  Uiso   1.00
H337   H     0.50785   0.90272   0.34273   0.00000  Uiso   1.00
H338   H     0.57190   1.00460   0.27596   0.00000  Uiso   1.00
H339   H     0.66261   0.98604   0.16390   0.00000  Uiso   1.00
H340   H     0.61433   0.87006   0.14478   0.00000  Uiso   1.00
H341   H     0.69028   0.91251   0.21784   0.00000  Uiso   1.00
H342   H     0.32676   0.80743   0.76155   0.00000  Uiso   1.00
H343   H     0.27189   0.86407   0.74625   0.00000  Uiso   1.00
H344   H     0.19854   0.74696   0.76496   0.00000  Uiso   1.00
H345   H     0.35370   0.74536   0.90514   0.00000  Uiso   1.00
H346   H     0.35362   0.80139   0.98500   0.00000  Uiso   1.00
H347   H     0.42699   0.87386   0.91138   0.00000  Uiso   1.00
H348   H     0.27508   0.96341   0.85919   0.00000  Uiso   1.00
H349   H     0.36694   0.99265   0.81668   0.00000  Uiso   1.00
H350   H     0.37857   1.01423   0.91431   0.00000  Uiso   1.00
H351   H     0.39690   0.70519   0.73519   0.00000  Uiso   1.00
H352   H     0.41888   0.73802   0.64004   0.00000  Uiso   1.00
H353   H     0.36075   0.77460   0.67664   0.00000  Uiso   1.00
H354   H     0.59960   0.97900   0.81328   0.00000  Uiso   1.00
H355   H     0.51624   0.84830   0.84485   0.00000  Uiso   1.00
H356   H     0.48361   0.92407   0.80408   0.00000  Uiso   1.00
H357   H     0.61843   0.81744   0.76308   0.00000  Uiso   1.00
H358   H     0.68923   0.93917   0.71719   0.00000  Uiso   1.00
H359   H     0.61028   0.82204   0.67133   0.00000  Uiso   1.00
H360   H     0.83228   1.02430   0.09261   0.00000  Uiso   1.00
H361   H     0.85569   0.96551   0.16789   0.00000  Uiso   1.00
H362   H     0.81153   0.91760   0.07966   0.00000  Uiso   1.00
H363   H     0.78686   0.12660   0.20858   0.00000  Uiso   1.00
H364   H     0.73135   0.09055   0.28667   0.00000  Uiso   1.00
H365   H     0.83527   0.21361   0.27425   0.00000  Uiso   1.00
H366   H     0.67437   0.27550   0.27047   0.00000  Uiso   1.00
H367   H     0.63398   0.15955   0.31640   0.00000  Uiso   1.00
H368   H     0.57016   0.16813   0.23504   0.00000  Uiso   1.00
H369   H     0.79187   0.23884   0.86117   0.00000  Uiso   1.00
H370   H     0.89690   0.31935   0.90598   0.00000  Uiso   1.00
H371   H     0.82076   0.35332   0.87155   0.00000  Uiso   1.00
H372   H     0.98491   0.18777   0.01565   0.00000  Uiso   1.00
H373   H     0.92622   0.08356  -0.03557   0.00000  Uiso   1.00
H374   H     1.04741   0.15249  -0.02769   0.00000  Uiso   1.00
H375   H     0.82562   0.13224   0.00225   0.00000  Uiso   1.00
H376   H     0.70723   0.06974  -0.03398   0.00000  Uiso   1.00
H377   H     0.74192   0.09949   0.06134   0.00000  Uiso   1.00
H378   H     0.95549   0.11678   0.34983   0.00000  Uiso   1.00
H379   H     0.88876   0.14261   0.37666   0.00000  Uiso   1.00
H380   H     0.83325   0.04700   0.31391   0.00000  Uiso   1.00
H381   H     0.69590   0.88112   0.39017   0.00000  Uiso   1.00
H382   H     0.72277   0.98930   0.43910   0.00000  Uiso   1.00
H383   H     0.69976   0.87890   0.49008   0.00000  Uiso   1.00
H384   H     0.84259   0.87385   0.36217   0.00000  Uiso   1.00
H385   H     0.87702   0.86947   0.46003   0.00000  Uiso   1.00
H386   H     0.95616   0.96626   0.39864   0.00000  Uiso   1.00
H387   H     0.54558   0.07660   0.87477   0.00000  Uiso   1.00
H388   H     0.62316   0.17249   0.81107   0.00000  Uiso   1.00
H389   H     0.51355   0.13867   0.81049   0.00000  Uiso   1.00
H390   H     0.72620   0.41506   0.89150   0.00000  Uiso   1.00
H391   H     0.61716   0.37140   0.84657   0.00000  Uiso   1.00
H392   H     0.68039   0.35491   0.80295   0.00000  Uiso   1.00
H393   H     0.74035   0.09936   0.62036   0.00000  Uiso   1.00
H394   H     0.78211   0.05210   0.56902   0.00000  Uiso   1.00
H395   H     0.79934   0.16543   0.53813   0.00000  Uiso   1.00
H396   H     0.81966   0.05459   0.75784   0.00000  Uiso   1.00
H397   H     0.94033   0.13150   0.77064   0.00000  Uiso   1.00
H398   H     0.87571   0.02521   0.71135   0.00000  Uiso   1.00
H399   H     0.95256   0.33193   0.61522   0.00000  Uiso   1.00
H400   H     1.01439   0.32937   0.70565   0.00000  Uiso   1.00
H401   H     0.89803   0.28978   0.69708   0.00000  Uiso   1.00
H402   H     0.88664   0.49744   0.01520   0.00000  Uiso   1.00
H403   H     0.86526   0.53546   0.08560   0.00000  Uiso   1.00
H404   H     0.77132   0.43373   0.03574   0.00000  Uiso   1.00
H405   H     0.72721   0.56601   0.29094   0.00000  Uiso   1.00
H406   H     0.62665   0.44945   0.26913   0.00000  Uiso   1.00
H407   H     0.64985   0.55984   0.21954   0.00000  Uiso   1.00
H408   H     0.61681   0.57700   0.44197   0.00000  Uiso   1.00
H409   H     0.57477   0.63397   0.38804   0.00000  Uiso   1.00
H410   H     0.64334   0.60906   0.35208   0.00000  Uiso   1.00
H411   H     0.68755   0.27439   0.39661   0.00000  Uiso   1.00
H412   H     0.72231   0.25894   0.48551   0.00000  Uiso   1.00
H413   H     0.74414   0.21513   0.41416   0.00000  Uiso   1.00
H414   H     1.00025   0.46327   0.42412   0.00000  Uiso   1.00
H415   H     0.93844   0.34385   0.38831   0.00000  Uiso   1.00
H416   H     0.94030   0.34999   0.49068   0.00000  Uiso   1.00
H417   H     0.70015   0.53087   0.91213   0.00000  Uiso   1.00
H418   H     0.64695   0.42812   0.97460   0.00000  Uiso   1.00
H419   H     0.67642   0.54670   0.99465   0.00000  Uiso   1.00
H420   H     0.98383   0.70960   0.07923   0.00000  Uiso   1.00
H421   H     0.98754   0.69181   0.17618   0.00000  Uiso   1.00
H422   H     1.03817   0.80894   0.13639   0.00000  Uiso   1.00
H423   H     0.94664   0.85934   0.20796   0.00000  Uiso   1.00
H424   H     0.87119   0.74640   0.24678   0.00000  Uiso   1.00
H425   H     0.83555   0.81437   0.19491   0.00000  Uiso   1.00
H426   H     0.82042   0.59477   0.41998   0.00000  Uiso   1.00
H427   H     0.84585   0.70940   0.37957   0.00000  Uiso   1.00
H428   H     0.89265   0.70712   0.46781   0.00000  Uiso   1.00
H429   H     1.04087   0.82167   0.26893   0.00000  Uiso   1.00
H430   H     1.10404   0.86129   0.35804   0.00000  Uiso   1.00
H431   H     0.99283   0.84951   0.34150   0.00000  Uiso   1.00
H432   H     1.06427   0.72358   0.48773   0.00000  Uiso   1.00
H433   H     1.12323   0.73124   0.41563   0.00000  Uiso   1.00
H434   H     1.02448   0.61693   0.45410   0.00000  Uiso   1.00
H435   H     0.48710   0.64718   0.78628   0.00000  Uiso   1.00
H436   H     0.39832   0.53954   0.74090   0.00000  Uiso   1.00
H437   H     0.47338   0.64489   0.68815   0.00000  Uiso   1.00
H438   H     0.53589   0.48334   0.65279   0.00000  Uiso   1.00
H439   H     0.42293   0.44542   0.67768   0.00000  Uiso   1.00
H440   H     0.48971   0.41151   0.73579   0.00000  Uiso   1.00
H441   H     0.86358   0.66433   0.97291   0.00000  Uiso   1.00
H442   H     0.89032   0.63892   0.88986   0.00000  Uiso   1.00
H443   H     0.84077   0.70552   0.87918   0.00000  Uiso   1.00
H444   H     0.70867   0.69079   0.92386   0.00000  Uiso   1.00
H445   H     0.64697   0.73861   0.92467   0.00000  Uiso   1.00
H446   H     0.71529   0.74801   1.00106   0.00000  Uiso   1.00
H447   H     0.76058   0.86721   0.76573   0.00000  Uiso   1.00
H448   H     0.76887   0.76575   0.80357   0.00000  Uiso   1.00
H449   H     0.86589   0.88467   0.78534   0.00000  Uiso   1.00
H450   H     0.81338   1.01799   0.87848   0.00000  Uiso   1.00
H451   H     0.76206   0.94620   0.96294   0.00000  Uiso   1.00
H452   H     0.69424   0.91529   0.88206   0.00000  Uiso   1.00
H453   H     0.77059   0.67188   0.57468   0.00000  Uiso   1.00
H454   H     0.66045   0.56692   0.57585   0.00000  Uiso   1.00
H455   H     0.72917   0.59774   0.65996   0.00000  Uiso   1.00
H456   H     0.56954   0.72996   0.55858   0.00000  Uiso   1.00
H457   H     0.52579   0.60130   0.55270   0.00000  Uiso   1.00
H458   H     0.61789   0.70004   0.50164   0.00000  Uiso   1.00
H459   H     0.74320   0.86641   0.62005   0.00000  Uiso   1.00
H460   H     0.79155   0.83308   0.56684   0.00000  Uiso   1.00
H461   H     0.82629   0.85155   0.66155   0.00000  Uiso   1.00
loop_
_geom_bond_atom_site_label_1
_geom_bond_atom_site_label_2
_geom_bond_distance
_geom_bond_site_symmetry_2
_ccdc_geom_bond_type
Si1    C52     1.846   .     S
Si1    O55     1.594   .     S
Si1    C53     1.900   1_455 S
Si1    O140    1.592   1_455 S
Si2    O56     1.617   .     S
Si2    O89     1.611   .     S
Si2    C54     1.872   1_545 S
Si2    C84     1.891   1_545 S
Si3    O59     1.633   .     S
Si3    O63     1.577   .     S
Si3    O149    1.636   1_455 S
Si3    O156    1.589   1_455 S
Si4    O55     1.565   .     S
Si4    O56     1.625   .     S
Si4    C57     1.831   .     S
Si4    O64     1.577   .     S
Si5    O60     1.640   .     S
Si5    C92     1.839   .     S
Si5    C58     1.868   1_545 S
Si5    O86     1.609   1_545 S
Si6    O59     1.630   .     S
Si6    O60     1.589   .     S
Si6    C61     1.822   .     S
Si6    O91     1.615   .     S
Si7    O67     1.587   .     S
Si7    O74     1.640   .     S
Si7    O163    1.583   1_455 S
Si7    O170    1.610   1_455 S
Si8    C62     1.898   .     S
Si8    O75     1.641   .     S
Si8    O70     1.624   1_554 S
Si8    O116    1.571   1_554 S
Si9    O63     1.610   .     S
Si9    O64     1.606   .     S
Si9    O68     1.646   .     S
Si9    O103    1.566   .     S
Si10   C65     1.914   .     S
Si10   C78     1.853   .     S
Si10   C66     1.878   1_455 S
Si10   O169    1.626   1_455 S
Si11   O67     1.630   .     S
Si11   O68     1.595   .     S
Si11   C69     1.929   .     S
Si11   O80     1.618   .     S
Si12   O70     1.609   .     S
Si12   C71     1.836   .     S
Si12   C72     1.864   1_455 S
Si12   C73     1.853   1_455 S
Si13   O74     1.641   .     S
Si13   O75     1.609   .     S
Si13   O76     1.629   .     S
Si13   O121    1.687   .     S
Si14   O76     1.580   .     S
Si14   C77     1.878   .     S
Si14   O85     1.593   1_554 S
Si14   O135    1.604   1_554 S
Si15   C79     1.851   .     S
Si15   O80     1.616   .     S
Si15   O82     1.594   .     S
Si15   C124    1.811   .     S
Si16   C81     1.887   .     S
Si16   O82     1.585   .     S
Si16   C83     1.875   .     S
Si16   O123    1.572   .     S
Si17   O85     1.551   .     S
Si17   O86     1.623   .     S
Si17   O179    1.560   1_455 S
Si17   C189    1.883   1_455 S
Si18   O88     1.604   .     S
Si18   O142    1.590   .     S
Si18   C87     1.877   1_545 S
Si18   O122    1.602   1_545 S
Si19   O88     1.629   .     S
Si19   O97     1.599   .     S
Si19   O94     1.598   1_554 S
Si19   O155    1.657   1_554 S
Si20   O89     1.568   .     S
Si20   C90     1.824   .     S
Si20   O91     1.589   .     S
Si20   C99     1.864   .     S
Si21   C93     1.873   .     S
Si21   O94     1.610   .     S
Si21   C95     1.882   .     S
Si21   O110    1.583   .     S
Si22   C96     1.811   .     S
Si22   O97     1.582   .     S
Si22   O98     1.636   .     S
Si22   O164    1.640   .     S
Si23   O98     1.655   .     S
Si23   O118    1.580   .     S
Si23   O114    1.600   1_554 S
Si23   O175    1.616   1_554 S
Si24   C100    1.911   .     S
Si24   C101    1.903   .     S
Si24   C102    1.829   .     S
Si24   O108    1.593   .     S
Si25   O103    1.599   .     S
Si25   C104    1.845   .     S
Si25   C105    1.828   .     S
Si25   C106    1.811   .     S
Si26   C107    1.785   .     S
Si26   O108    1.611   .     S
Si26   C109    1.874   .     S
Si26   C166    1.798   .     S
Si27   O110    1.609   .     S
Si27   C111    1.825   .     S
Si27   C112    1.873   .     S
Si27   O173    1.605   .     S
Si28   C113    1.865   .     S
Si28   O114    1.621   .     S
Si28   C115    1.840   .     S
Si28   O116    1.639   .     S
Si29   C117    1.811   .     S
Si29   O118    1.621   .     S
Si29   C119    1.881   .     S
Si29   C120    1.841   .     S
Si30   O121    1.615   .     S
Si30   O122    1.623   .     S
Si30   O123    1.605   .     S
Si30   O128    1.593   .     S
Si31   C125    1.828   .     S
Si31   C126    1.903   .     S
Si31   C127    1.781   .     S
Si31   O136    1.566   .     S
Si32   O128    1.612   .     S
Si32   C129    1.859   .     S
Si32   C130    1.852   .     S
Si32   C131    1.888   .     S
Si33   C132    1.846   .     S
Si33   C133    1.809   .     S
Si33   C134    1.868   .     S
Si33   O135    1.596   .     S
Si34   O136    1.596   .     S
Si34   C137    1.910   .     S
Si34   C138    1.833   .     S
Si34   C139    1.907   .     S
Si35   O140    1.607   .     S
Si35   C146    1.854   .     S
Si35   C141    1.934   1_545 S
Si35   O181    1.568   1_545 S
Si36   O142    1.605   .     S
Si36   C143    1.846   .     S
Si36   C144    1.855   .     S
Si36   O160    1.634   .     S
Si37   C147    1.884   .     S
Si37   O161    1.635   .     S
Si37   C145    1.839   1_554 S
Si37   O153    1.652   1_554 S
Si38   C148    1.843   .     S
Si38   O149    1.591   .     S
Si38   C150    1.907   1_545 S
Si38   C151    1.824   1_545 S
Si39   C152    1.833   .     S
Si39   O153    1.566   .     S
Si39   C154    1.885   .     S
Si39   O155    1.638   .     S
Si40   O156    1.651   .     S
Si40   C157    1.855   .     S
Si40   C158    1.902   .     S
Si40   C159    1.847   .     S
Si41   O160    1.612   .     S
Si41   O161    1.640   .     S
Si41   C162    1.864   .     S
Si41   O163    1.674   .     S
Si42   O164    1.609   .     S
Si42   C165    1.869   .     S
Si42   O171    1.601   .     S
Si42   O176    1.621   .     S
Si43   C167    1.879   .     S
Si43   C168    1.864   .     S
Si43   O169    1.601   .     S
Si43   O172    1.602   .     S
Si44   O170    1.661   .     S
Si44   O171    1.667   .     S
Si44   O172    1.608   .     S
Si44   O183    1.608   .     S
Si45   O173    1.573   .     S
Si45   C174    1.875   .     S
Si45   O175    1.621   .     S
Si45   O186    1.593   .     S
Si46   O176    1.595   .     S
Si46   C177    1.863   .     S
Si46   C178    1.838   .     S
Si46   O180    1.602   .     S
Si47   O180    1.574   .     S
Si47   O181    1.571   .     S
Si47   O179    1.636   1_554 S
Si47   O191    1.577   1_554 S
Si48   C182    1.917   .     S
Si48   O183    1.574   .     S
Si48   C184    1.841   .     S
Si48   C185    1.907   .     S
Si49   O186    1.629   .     S
Si49   C187    1.838   .     S
Si49   C188    1.906   .     S
Si49   O196    1.549   .     S
Si50   C190    1.785   .     S
Si50   O191    1.587   .     S
Si50   C192    1.829   .     S
Si50   C193    1.807   .     S
Si51   C194    1.912   .     S
Si51   C195    1.869   .     S
Si51   O196    1.591   .     S
Si51   C197    1.833   .     S
C52    H198    1.079   .     S
C52    H199    1.073   .     S
C52    H200    1.096   .     S
C53    H201    1.102   .     S
C53    H202    1.112   .     S
C53    H203    1.120   .     S
C53    Si1     1.900   1_655 S
C54    H204    1.116   .     S
C54    H205    1.120   .     S
C54    H206    1.127   .     S
C54    Si2     1.872   1_565 S
C57    H207    1.124   .     S
C57    H208    1.119   .     S
C57    H209    1.072   .     S
C58    H210    1.106   .     S
C58    H211    1.142   .     S
C58    H212    1.112   .     S
C58    Si5     1.868   1_565 S
C61    H213    1.159   .     S
C61    H214    1.203   .     S
C61    H215    1.071   .     S
C62    H216    1.100   .     S
C62    H217    1.179   .     S
C62    H218    1.099   .     S
C65    H219    1.154   .     S
C65    H220    1.100   .     S
C65    H221    1.089   .     S
C66    H222    1.145   .     S
C66    H223    1.105   .     S
C66    H224    1.155   .     S
C66    Si10    1.878   1_655 S
C69    H225    1.130   .     S
C69    H226    1.095   .     S
C69    H227    1.065   .     S
O70    Si8     1.624   1_556 S
C71    H228    1.133   .     S
C71    H229    1.136   .     S
C71    H230    1.069   .     S
C72    H231    1.145   .     S
C72    H232    1.111   .     S
C72    H233    1.104   .     S
C72    Si12    1.864   1_655 S
C73    H234    1.115   .     S
C73    H235    1.093   .     S
C73    H236    1.124   .     S
C73    Si12    1.853   1_655 S
C77    H237    1.058   .     S
C77    H238    1.116   .     S
C77    H239    1.058   .     S
C78    H240    1.096   .     S
C78    H241    1.021   .     S
C78    H242    1.101   .     S
C79    H243    1.105   .     S
C79    H244    1.087   .     S
C79    H245    1.105   .     S
C81    H246    1.097   .     S
C81    H247    1.067   .     S
C81    H248    1.032   .     S
C83    H249    1.115   .     S
C83    H250    1.064   .     S
C83    H251    1.143   .     S
C84    H252    1.125   .     S
C84    H253    1.111   .     S
C84    H254    1.128   .     S
C84    Si2     1.891   1_565 S
O85    Si14    1.593   1_556 S
O86    Si5     1.609   1_565 S
C87    H255    1.092   .     S
C87    H256    1.134   .     S
C87    H257    1.119   .     S
C87    Si18    1.877   1_565 S
C90    H258    1.108   .     S
C90    H259    1.135   .     S
C90    H260    1.123   .     S
C92    H261    1.095   .     S
C92    H262    1.093   .     S
C92    H263    1.045   .     S
C93    H264    1.118   .     S
C93    H265    1.099   .     S
C93    H266    1.128   .     S
O94    Si19    1.598   1_556 S
C95    H267    1.129   .     S
C95    H268    1.098   .     S
C95    H269    1.125   .     S
C96    H270    1.125   .     S
C96    H271    1.115   .     S
C96    H272    1.072   .     S
C99    H273    1.095   .     S
C99    H274    1.081   .     S
C99    H275    1.150   .     S
C100   H276    1.123   .     S
C100   H277    1.086   .     S
C100   H278    1.143   .     S
C101   H279    1.089   .     S
C101   H280    1.087   .     S
C101   H281    1.020   .     S
C102   H282    1.110   .     S
C102   H283    1.139   .     S
C102   H284    1.120   .     S
C104   H285    1.117   .     S
C104   H286    1.154   .     S
C104   H287    1.085   .     S
C105   H288    1.121   .     S
C105   H289    1.111   .     S
C105   H290    1.088   .     S
C106   H291    1.099   .     S
C106   H292    1.092   .     S
C106   H293    1.122   .     S
C107   H294    1.090   .     S
C107   H295    1.117   .     S
C107   H296    1.101   .     S
C109   H297    1.114   .     S
C109   H298    1.080   .     S
C109   H299    1.101   .     S
C111   H300    1.117   .     S
C111   H301    1.129   .     S
C111   H302    1.094   .     S
C112   H303    1.116   .     S
C112   H304    1.058   .     S
C112   H305    1.064   .     S
C113   H306    1.143   .     S
C113   H307    1.143   .     S
C113   H308    1.090   .     S
O114   Si23    1.600   1_556 S
C115   H309    1.138   .     S
C115   H310    1.111   .     S
C115   H311    1.058   .     S
O116   Si8     1.571   1_556 S
C117   H312    1.137   .     S
C117   H313    1.053   .     S
C117   H314    1.059   .     S
C119   H315    1.126   .     S
C119   H316    1.130   .     S
C119   H317    1.081   .     S
C120   H318    1.136   .     S
C120   H319    1.099   .     S
C120   H320    1.066   .     S
O122   Si18    1.602   1_565 S
C124   H321    1.147   .     S
C124   H322    1.090   .     S
C124   H323    1.069   .     S
C125   H324    1.065   .     S
C125   H325    1.128   .     S
C125   H326    1.106   .     S
C126   H327    1.105   .     S
C126   H328    1.076   .     S
C126   H329    1.097   .     S
C127   H330    1.119   .     S
C127   H331    1.112   .     S
C127   H332    1.130   .     S
C129   H333    1.158   .     S
C129   H334    1.111   .     S
C129   H335    1.099   .     S
C130   H336    0.971   .     S
C130   H337    1.126   .     S
C130   H338    1.125   .     S
C131   H339    1.079   .     S
C131   H340    1.016   .     S
C131   H341    1.084   .     S
C132   H342    1.135   .     S
C132   H343    1.145   .     S
C132   H344    1.097   .     S
C133   H345    1.138   .     S
C133   H346    1.086   .     S
C133   H347    1.117   .     S
C134   H348    1.113   .     S
C134   H349    1.092   .     S
C134   H350    1.118   .     S
O135   Si14    1.604   1_556 S
C137   H351    1.137   .     S
C137   H352    1.074   .     S
C137   H353    1.115   .     S
C138   H354    1.112   .     S
C138   H355    1.155   .     S
C138   H356    1.066   .     S
C139   H357    1.064   .     S
C139   H358    1.189   .     S
C139   H359    1.093   .     S
O140   Si1     1.592   1_655 S
C141   H360    1.034   .     S
C141   H361    1.153   .     S
C141   H362    1.058   .     S
C141   Si35    1.934   1_565 S
C143   H363    1.052   .     S
C143   H364    1.128   .     S
C143   H365    1.089   .     S
C144   H366    1.104   .     S
C144   H367    1.071   .     S
C144   H368    1.158   .     S
C145   H369    1.054   .     S
C145   H370    1.068   .     S
C145   H371    1.120   .     S
C145   Si37    1.839   1_556 S
C146   H372    1.125   .     S
C146   H373    1.071   .     S
C146   H374    1.111   .     S
C147   H375    1.132   .     S
C147   H376    1.092   .     S
C147   H377    1.132   .     S
C148   H378    1.048   .     S
C148   H379    1.121   .     S
C148   H380    1.132   .     S
O149   Si3     1.636   1_655 S
C150   H381    1.118   .     S
C150   H382    1.132   .     S
C150   H383    1.161   .     S
C150   Si38    1.907   1_565 S
C151   H384    1.110   .     S
C151   H385    1.107   .     S
C151   H386    1.135   .     S
C151   Si38    1.824   1_565 S
C152   H387    1.114   .     S
C152   H388    1.085   .     S
C152   H389    1.113   .     S
O153   Si37    1.652   1_556 S
C154   H390    1.116   .     S
C154   H391    1.103   .     S
C154   H392    1.153   .     S
O155   Si19    1.657   1_556 S
O156   Si3     1.589   1_655 S
C157   H393    1.115   .     S
C157   H394    1.104   .     S
C157   H395    1.120   .     S
C158   H396    1.090   .     S
C158   H397    1.137   .     S
C158   H398    1.123   .     S
C159   H399    1.108   .     S
C159   H400    1.145   .     S
C159   H401    1.102   .     S
C162   H402    1.072   .     S
C162   H403    1.123   .     S
C162   H404    1.172   .     S
O163   Si7     1.583   1_655 S
C165   H405    1.093   .     S
C165   H406    1.086   .     S
C165   H407    1.086   .     S
C166   H408    1.053   .     S
C166   H409    1.077   .     S
C166   H410    1.126   .     S
C167   H411    1.118   .     S
C167   H412    1.094   .     S
C167   H413    1.134   .     S
C168   H414    1.116   .     S
C168   H415    1.127   .     S
C168   H416    1.142   .     S
O169   Si10    1.626   1_655 S
O170   Si7     1.610   1_655 S
C174   H417    1.061   .     S
C174   H418    1.106   .     S
C174   H419    1.115   .     S
O175   Si23    1.616   1_556 S
C177   H420    1.116   .     S
C177   H421    1.104   .     S
C177   H422    1.050   .     S
C178   H423    1.069   .     S
C178   H424    1.094   .     S
C178   H425    1.138   .     S
O179   Si17    1.560   1_655 S
O179   Si47    1.636   1_556 S
O181   Si35    1.568   1_565 S
C182   H426    1.120   .     S
C182   H427    1.091   .     S
C182   H428    1.101   .     S
C184   H429    1.159   .     S
C184   H430    1.111   .     S
C184   H431    1.176   .     S
C185   H432    1.081   .     S
C185   H433    1.116   .     S
C185   H434    1.095   .     S
C187   H435    1.096   .     S
C187   H436    1.075   .     S
C187   H437    1.124   .     S
C188   H438    1.088   .     S
C188   H439    1.138   .     S
C188   H440    1.139   .     S
C189   H441    1.114   .     S
C189   H442    1.100   .     S
C189   H443    1.166   .     S
C189   Si17    1.883   1_655 S
C190   H444    1.148   .     S
C190   H445    1.058   .     S
C190   H446    1.091   .     S
O191   Si47    1.577   1_556 S
C192   H447    1.123   .     S
C192   H448    1.125   .     S
C192   H449    1.128   .     S
C193   H450    1.100   .     S
C193   H451    1.066   .     S
C193   H452    1.160   .     S
C194   H453    1.088   .     S
C194   H454    1.120   .     S
C194   H455    1.083   .     S
C195   H456    1.087   .     S
C195   H457    1.099   .     S
C195   H458    1.143   .     S
C197   H459    1.055   .     S
C197   H460    1.056   .     S
C197   H461    1.143   .     S
