data_333-9-11-16-15-30-1
_audit_creation_date              2025-03-07
_audit_creation_method            'Materials Studio'
_symmetry_space_group_name_H-M    'P1'
_symmetry_Int_Tables_number       1
_symmetry_cell_setting            triclinic
loop_
_symmetry_equiv_pos_as_xyz
  x,y,z
_cell_length_a                    15.5618
_cell_length_b                    18.6109
_cell_length_c                    20.3680
_cell_angle_alpha                 81.1428
_cell_angle_beta                  90.1777
_cell_angle_gamma                 117.0637
loop_
_atom_site_label
_atom_site_type_symbol
_atom_site_fract_x
_atom_site_fract_y
_atom_site_fract_z
_atom_site_U_iso_or_equiv
_atom_site_adp_type
_atom_site_occupancy
Si1    Si    0.18483   0.06944   0.13702   0.00000  Uiso   1.00
Si2    Si    0.22491   0.18050   0.00362   0.00000  Uiso   1.00
Si3    Si   -0.01739   0.07798   0.46037   0.00000  Uiso   1.00
Si4    Si    0.18616   0.01218   0.84662   0.00000  Uiso   1.00
Si5    Si    0.14798   0.24830   0.88370   0.00000  Uiso   1.00
Si6    Si    0.23158   0.12593   0.71063   0.00000  Uiso   1.00
Si7    Si    0.06036   0.26117   0.44170   0.00000  Uiso   1.00
Si8    Si   -0.04614   0.50018   0.91480   0.00000  Uiso   1.00
Si9    Si    0.18246   0.68236   0.59233   0.00000  Uiso   1.00
Si10   Si    0.04742   0.91744   0.22866   0.00000  Uiso   1.00
Si11   Si    0.18349   0.88148   0.32258   0.00000  Uiso   1.00
Si12   Si   -0.03059   0.92068   0.88284   0.00000  Uiso   1.00
Si13   Si    0.50834  -0.01144   0.13235   0.00000  Uiso   1.00
Si14   Si    0.27565   0.19898   0.22567   0.00000  Uiso   1.00
Si15   Si    0.49760   0.10581   0.01262   0.00000  Uiso   1.00
Si16   Si    0.53782  -0.04269   0.42666   0.00000  Uiso   1.00
Si17   Si    0.25268   0.01491   0.62115   0.00000  Uiso   1.00
Si18   Si    0.61619   0.09074   0.78248   0.00000  Uiso   1.00
Si19   Si    0.33949   0.11615   0.92920   0.00000  Uiso   1.00
Si20   Si    0.45534   0.35605   0.17363   0.00000  Uiso   1.00
Si21   Si    0.57053   0.45714   0.04199   0.00000  Uiso   1.00
Si22   Si    0.29385   0.61267   0.52060   0.00000  Uiso   1.00
Si23   Si    0.41667   0.52522   0.39293   0.00000  Uiso   1.00
Si24   Si    0.46458   0.53228   0.95191   0.00000  Uiso   1.00
Si25   Si    0.31062   0.50136   0.64377   0.00000  Uiso   1.00
Si26   Si    0.55481   0.73020   0.14671   0.00000  Uiso   1.00
Si27   Si    0.36003   0.88039   0.24707   0.00000  Uiso   1.00
Si28   Si    0.49754   0.84839   0.06274   0.00000  Uiso   1.00
Si29   Si    0.48301   0.69905   0.42490   0.00000  Uiso   1.00
Si30   Si    0.52568   0.85626   0.31931   0.00000  Uiso   1.00
Si31   Si    0.30758   0.77765   1.00428   0.00000  Uiso   1.00
Si32   Si    0.59383   0.80011   0.64463   0.00000  Uiso   1.00
Si33   Si    0.80485  -0.00789   0.08798   0.00000  Uiso   1.00
Si34   Si    0.66726   0.10877   0.20677   0.00000  Uiso   1.00
Si35   Si    0.81923   0.15590   0.01232   0.00000  Uiso   1.00
Si36   Si    0.80154  -0.05184   0.40916   0.00000  Uiso   1.00
Si37   Si    0.66231   0.07971   0.50663   0.00000  Uiso   1.00
Si38   Si    0.79403   0.07770   0.30584   0.00000  Uiso   1.00
Si39   Si    0.67593   0.15956   0.91298   0.00000  Uiso   1.00
Si40   Si    0.82315   0.25697   0.11418   0.00000  Uiso   1.00
Si41   Si    0.66620   0.24284   0.45934   0.00000  Uiso   1.00
Si42   Si    0.80133   0.34834   0.86608   0.00000  Uiso   1.00
Si43   Si    0.78728   0.49750   0.60959   0.00000  Uiso   1.00
Si44   Si    0.98138   0.79255   0.13771   0.00000  Uiso   1.00
Si45   Si    0.68791   0.87467   0.21666   0.00000  Uiso   1.00
Si46   Si    0.80466   0.93392  -0.04828   0.00000  Uiso   1.00
Si47   Si    0.78723   0.68955   0.33979   0.00000  Uiso   1.00
Si48   Si    0.65379   0.79235   0.50351   0.00000  Uiso   1.00
Si49   Si    0.85880   0.87668   0.30430   0.00000  Uiso   1.00
Si50   Si    0.83863   0.64859   0.67169   0.00000  Uiso   1.00
Si51   Si    0.82250   0.77121   0.55552   0.00000  Uiso   1.00
C52    C     0.29620   1.05339   0.14116   0.00000  Uiso   1.00
O53    O     0.17462   0.10175   0.06145   0.00000  Uiso   1.00
C54    C     0.29164   0.27482   0.03837   0.00000  Uiso   1.00
C55    C     1.00604   0.07173   0.55047   0.00000  Uiso   1.00
C56    C     0.18860   0.92914   0.81056   0.00000  Uiso   1.00
O57    O     0.15227   0.19241   0.95075   0.00000  Uiso   1.00
C58    C     0.26274   0.28222   0.83481   0.00000  Uiso   1.00
C59    C     1.05187   0.17972   0.83182   0.00000  Uiso   1.00
C60    C     0.06772   0.06010   0.40281   0.00000  Uiso   1.00
C61    C     0.15182   0.17287   0.67923   0.00000  Uiso   1.00
O62    O     0.20913   0.08812   0.78851   0.00000  Uiso   1.00
C63    C     0.35813   0.20493   0.69090   0.00000  Uiso   1.00
O64    O    -0.00374   0.16690   0.43310   0.00000  Uiso   1.00
C65    C     0.04151   0.32209   0.36594   0.00000  Uiso   1.00
C66    C     0.02321   0.28803   0.52069   0.00000  Uiso   1.00
C67    C     0.03127   0.54706   0.83583   0.00000  Uiso   1.00
C68    C    -0.10085   0.56284   0.93314   0.00000  Uiso   1.00
C69    C     1.02782   0.48531   0.98106   0.00000  Uiso   1.00
C70    C     0.08862   0.58686   0.64548   0.00000  Uiso   1.00
C71    C     0.23126   0.76696   0.64404   0.00000  Uiso   1.00
C72    C     0.11060   0.70453   0.52526   0.00000  Uiso   1.00
O73    O     0.09127   0.98945   0.16764   0.00000  Uiso   1.00
O74    O     0.12898   0.92452   0.28098   0.00000  Uiso   1.00
C75    C     0.10721   0.77038   0.34092   0.00000  Uiso   1.00
C76    C     0.21571   0.92245   0.40410   0.00000  Uiso   1.00
C77    C    -0.05064   0.81177   0.89282   0.00000  Uiso   1.00
O78    O     0.08073   0.98049   0.88561   0.00000  Uiso   1.00
O79    O     0.20550   0.13901   0.18020   0.00000  Uiso   1.00
C80    C     0.31546   0.13956   0.28985   0.00000  Uiso   1.00
C81    C     0.21066   0.24573   0.26346   0.00000  Uiso   1.00
O82    O     0.47923   0.02703   0.06621   0.00000  Uiso   1.00
C83    C     0.48280   0.02006   0.39672   0.00000  Uiso   1.00
C84    C     0.44301   0.86939   0.48511   0.00000  Uiso   1.00
C85    C     0.30408   0.09181   0.54552   0.00000  Uiso   1.00
C86    C     0.15428  -0.07469   0.59059   0.00000  Uiso   1.00
C87    C     0.33008  -0.02918   0.65709   0.00000  Uiso   1.00
O88    O     0.21752   0.05192   0.67454   0.00000  Uiso   1.00
C89    C     0.59911   0.17510   0.72977   0.00000  Uiso   1.00
O90    O     0.25879   0.03876   0.90242   0.00000  Uiso   1.00
O91    O     0.39967   0.09117   0.98133   0.00000  Uiso   1.00
C92    C     0.42967   0.17821   0.85879   0.00000  Uiso   1.00
O93    O     0.30459   0.17126   0.96076   0.00000  Uiso   1.00
O94    O     0.36755   0.26447   0.18217   0.00000  Uiso   1.00
C95    C     0.55131   0.20244   0.05356   0.00000  Uiso   1.00
C96    C     0.55333   0.36076   0.23406   0.00000  Uiso   1.00
C97    C     0.40052   0.42549   0.17801   0.00000  Uiso   1.00
O98    O     0.50782   0.38595   0.10096   0.00000  Uiso   1.00
C99    C     0.59764   0.40879   0.97615   0.00000  Uiso   1.00
C100   C     0.19025   0.28147   0.45109   0.00000  Uiso   1.00
C101   C     0.18465   0.54085   0.48529   0.00000  Uiso   1.00
O102   O     0.26690   0.66701   0.56397   0.00000  Uiso   1.00
C103   C     0.30998   0.51816   0.35062   0.00000  Uiso   1.00
C104   C     0.38671   0.46169   0.47729   0.00000  Uiso   1.00
C105   C     0.48354   0.49208   0.33694   0.00000  Uiso   1.00
C106   C     0.45525   0.47923   0.88108   0.00000  Uiso   1.00
O107   O     0.51315   0.50450   1.01411   0.00000  Uiso   1.00
C108   C     0.54331   0.64409   0.91892   0.00000  Uiso   1.00
C109   C     0.33719   0.50993   0.97454   0.00000  Uiso   1.00
O110   O     0.33273   0.55941   0.57050   0.00000  Uiso   1.00
C111   C     0.19154   0.40779   0.64060   0.00000  Uiso   1.00
C112   C     0.30091   0.55505   0.71103   0.00000  Uiso   1.00
C113   C     0.40673   0.47219   0.66248   0.00000  Uiso   1.00
C114   C     0.43860   0.66950   0.19513   0.00000  Uiso   1.00
C115   C     0.68554   0.52675   0.07695   0.00000  Uiso   1.00
C116   C     0.59550   0.66096   0.11911   0.00000  Uiso   1.00
C117   C     0.28690   0.79274   0.20263   0.00000  Uiso   1.00
O118   O     0.42155   0.95549   0.18990   0.00000  Uiso   1.00
O119   O     0.28755   0.90250   0.28625   0.00000  Uiso   1.00
O120   O     0.54195   0.78525   0.08154   0.00000  Uiso   1.00
O121   O     0.50894   0.90601   0.11724   0.00000  Uiso   1.00
C122   C     0.56066   0.91844   0.98312   0.00000  Uiso   1.00
O123   O     0.37818   0.67160   0.46186   0.00000  Uiso   1.00
O124   O     0.47859   0.61826   0.40093   0.00000  Uiso   1.00
O125   O     0.42705   0.85355   0.29409   0.00000  Uiso   1.00
O126   O     0.51161   0.76827   0.35928   0.00000  Uiso   1.00
O127   O     0.56369   0.91933   0.37038   0.00000  Uiso   1.00
C128   C     0.34365   0.73757   0.93626   0.00000  Uiso   1.00
O129   O     0.38711   0.79573   1.05535   0.00000  Uiso   1.00
C130   C     0.30755   0.87715   0.97186   0.00000  Uiso   1.00
C131   C     0.49819   0.99764   0.80630   0.00000  Uiso   1.00
C132   C     0.18360   0.70413   1.04761   0.00000  Uiso   1.00
C133   C     0.45923   0.78413   0.65705   0.00000  Uiso   1.00
C134   C     0.59809   0.70486   0.68747   0.00000  Uiso   1.00
C135   C     0.67527   0.88261   0.68927   0.00000  Uiso   1.00
C136   C     0.70005   1.07181   0.73241   0.00000  Uiso   1.00
C137   C     0.92960   0.00609   0.10816   0.00000  Uiso   1.00
O138   O     0.61246   0.05474   0.15183   0.00000  Uiso   1.00
C139   C     0.58543   0.14036   0.24439   0.00000  Uiso   1.00
C140   C     1.13935   0.34172   0.89906   0.00000  Uiso   1.00
C141   C     0.94130   0.21204   0.97426   0.00000  Uiso   1.00
O142   O     0.80787   0.08209   0.06575   0.00000  Uiso   1.00
O143   O     0.87474   0.00718   0.45605   0.00000  Uiso   1.00
O144   O     0.62779   0.00863   0.46501   0.00000  Uiso   1.00
C145   C     0.78370   0.11237   0.53844   0.00000  Uiso   1.00
C146   C     0.57152   0.05276   0.57854   0.00000  Uiso   1.00
C147   C     0.91083   0.10250   0.25742   0.00000  Uiso   1.00
O148   O     0.71389   0.06364   0.25460   0.00000  Uiso   1.00
O149   O     0.76682   0.00345   0.36513   0.00000  Uiso   1.00
O150   O     0.66978   0.12478   0.84543   0.00000  Uiso   1.00
O151   O     0.74675   0.13178   0.95478   0.00000  Uiso   1.00
O152   O     0.57269   0.11580   0.95081   0.00000  Uiso   1.00
O153   O     0.75697   0.19301   0.17476   0.00000  Uiso   1.00
O154   O     0.80479   0.21964   0.04944   0.00000  Uiso   1.00
C155   C     0.80201   0.34465   0.10067   0.00000  Uiso   1.00
C156   C     0.95458   0.29646   0.12888   0.00000  Uiso   1.00
O157   O     0.66257   0.15586   0.46332   0.00000  Uiso   1.00
C158   C     0.81270   0.16927   0.34245   0.00000  Uiso   1.00
C159   C     0.78676   0.31957   0.42699   0.00000  Uiso   1.00
C160   C     0.58083   0.26043   0.40130   0.00000  Uiso   1.00
C161   C     0.63372   0.25818   0.54056   0.00000  Uiso   1.00
O162   O     0.72230   0.25963   0.90564   0.00000  Uiso   1.00
C163   C     0.87357   0.33304   0.80675   0.00000  Uiso   1.00
O164   O     0.86961   0.40905   0.91283   0.00000  Uiso   1.00
C165   C     0.83656   0.53027   0.51973   0.00000  Uiso   1.00
C166   C     0.65076   0.46015   0.61482   0.00000  Uiso   1.00
C167   C     0.73773   0.39791   0.81974   0.00000  Uiso   1.00
C168   C     0.80848   0.40942   0.64442   0.00000  Uiso   1.00
C169   C     1.08324   0.85184   0.06976   0.00000  Uiso   1.00
C170   C     0.87211   0.78972   0.10030   0.00000  Uiso   1.00
O171   O     1.00372   0.83409   0.20179   0.00000  Uiso   1.00
O172   O     0.63646   0.78981   0.18603   0.00000  Uiso   1.00
O173   O     0.72738   0.94364   0.15124   0.00000  Uiso   1.00
O174   O     0.60771   0.88850   0.25746   0.00000  Uiso   1.00
O175   O     0.90791   0.93262   0.93819   0.00000  Uiso   1.00
C176   C     0.96607   0.68399   0.15564   0.00000  Uiso   1.00
C177   C     0.71609   0.83223  -0.06103   0.00000  Uiso   1.00
O178   O     0.78563   0.94032   0.02838   0.00000  Uiso   1.00
C179   C     0.79772   1.01297   0.89160   0.00000  Uiso   1.00
C180   C     0.71089   0.64701   0.42013   0.00000  Uiso   1.00
C181   C     0.70030   0.65982   0.27403   0.00000  Uiso   1.00
C182   C     0.86786   0.63847   0.34368   0.00000  Uiso   1.00
O183   O     0.55950   0.72660   0.47936   0.00000  Uiso   1.00
O184   O     0.71247   0.87172   0.44757   0.00000  Uiso   1.00
O185   O     0.62721   0.82145   0.56543   0.00000  Uiso   1.00
O186   O     0.95833   0.92596   0.26341   0.00000  Uiso   1.00
O187   O     0.77320   0.87032   0.25725   0.00000  Uiso   1.00
O188   O     0.83864   0.78614   0.33451   0.00000  Uiso   1.00
O189   O     0.86017   0.92153   0.36275   0.00000  Uiso   1.00
C190   C     0.74931   0.61610   0.74446   0.00000  Uiso   1.00
O191   O     0.83512   0.56578   0.65341   0.00000  Uiso   1.00
C192   C     0.96254   0.71266   0.69398   0.00000  Uiso   1.00
C193   C     0.92897   0.94870   0.79737   0.00000  Uiso   1.00
C194   C     0.92542   0.80638   0.48947   0.00000  Uiso   1.00
O195   O     0.71992   0.74921   0.52334   0.00000  Uiso   1.00
O196   O     0.81227   0.69401   0.60768   0.00000  Uiso   1.00
C197   C     0.85236   0.85712   0.60491   0.00000  Uiso   1.00
H198   H     0.28909   1.01417   0.10054   0.00000  Uiso   1.00
H199   H     0.29404   1.01864   0.19277   0.00000  Uiso   1.00
H200   H     0.36607   1.10953   0.13111   0.00000  Uiso   1.00
H201   H     0.36328   0.27787   0.04983   0.00000  Uiso   1.00
H202   H     0.24807   0.27426   0.07714   0.00000  Uiso   1.00
H203   H     0.30822   0.33230   0.00543   0.00000  Uiso   1.00
H204   H     1.05162   0.13222   0.55704   0.00000  Uiso   1.00
H205   H     1.03794   0.03157   0.56622   0.00000  Uiso   1.00
H206   H     0.93983   0.05088   0.58204   0.00000  Uiso   1.00
H207   H     0.26773   0.94802   0.79517   0.00000  Uiso   1.00
H208   H     0.14227   0.91100   0.76656   0.00000  Uiso   1.00
H209   H     0.17287   0.87401   0.84111   0.00000  Uiso   1.00
H210   H     0.28444   0.33650   0.79234   0.00000  Uiso   1.00
H211   H     0.25817   0.22642   0.81743   0.00000  Uiso   1.00
H212   H     0.31644   0.29728   0.87026   0.00000  Uiso   1.00
H213   H     0.98120   0.14377   0.85962   0.00000  Uiso   1.00
H214   H     1.07038   0.13293   0.81492   0.00000  Uiso   1.00
H215   H     1.03823   0.21300   0.78525   0.00000  Uiso   1.00
H216   H     0.06481  -0.00000   0.41510   0.00000  Uiso   1.00
H217   H     0.14461   0.10822   0.39102   0.00000  Uiso   1.00
H218   H     0.03096   0.06056   0.35670   0.00000  Uiso   1.00
H219   H     0.08010   0.12158   0.67614   0.00000  Uiso   1.00
H220   H     0.17949   0.19962   0.62593   0.00000  Uiso   1.00
H221   H     0.14836   0.22132   0.70423   0.00000  Uiso   1.00
H222   H     0.40842   0.18015   0.70349   0.00000  Uiso   1.00
H223   H     0.36914   0.26016   0.71071   0.00000  Uiso   1.00
H224   H     0.37171   0.22803   0.63662   0.00000  Uiso   1.00
H225   H    -0.03429   0.30900   0.36741   0.00000  Uiso   1.00
H226   H     0.05645   0.30772   0.32076   0.00000  Uiso   1.00
H227   H     0.08178   0.38848   0.36877   0.00000  Uiso   1.00
H228   H     0.07169   0.35500   0.51846   0.00000  Uiso   1.00
H229   H     0.02739   0.25241   0.56633   0.00000  Uiso   1.00
H230   H    -0.05072   0.27917   0.51633   0.00000  Uiso   1.00
H231   H    -0.00938   0.56270   0.79607   0.00000  Uiso   1.00
H232   H     0.04541   0.49813   0.81986   0.00000  Uiso   1.00
H233   H     0.10207   0.60209   0.84259   0.00000  Uiso   1.00
H234   H    -0.14545   0.53405   0.98038   0.00000  Uiso   1.00
H235   H    -0.14602   0.56087   0.89251   0.00000  Uiso   1.00
H236   H    -0.03777   0.62245   0.93504   0.00000  Uiso   1.00
H237   H     1.00814   0.48731   1.03136   0.00000  Uiso   1.00
H238   H     1.09965   0.53723   0.96609   0.00000  Uiso   1.00
H239   H     1.03578   0.43004   0.98169   0.00000  Uiso   1.00
H240   H     0.05585   0.54757   0.61093   0.00000  Uiso   1.00
H241   H     0.02657   0.59166   0.66410   0.00000  Uiso   1.00
H242   H     0.11896   0.55859   0.68559   0.00000  Uiso   1.00
H243   H     0.17398   0.78455   0.65934   0.00000  Uiso   1.00
H244   H     0.29128   0.81790   0.61511   0.00000  Uiso   1.00
H245   H     0.26141   0.74855   0.69062   0.00000  Uiso   1.00
H246   H     0.12789   0.76733   0.50981   0.00000  Uiso   1.00
H247   H     0.03363   0.67972   0.54177   0.00000  Uiso   1.00
H248   H     0.11188   0.67402   0.48442   0.00000  Uiso   1.00
H249   H     0.04739   0.75664   0.37719   0.00000  Uiso   1.00
H250   H     0.15462   0.75147   0.37166   0.00000  Uiso   1.00
H251   H     0.08450   0.74098   0.29403   0.00000  Uiso   1.00
H252   H     0.25694   0.99413   0.39521   0.00000  Uiso   1.00
H253   H     0.26563   0.89860   0.43362   0.00000  Uiso   1.00
H254   H     0.14880   0.90350   0.43463   0.00000  Uiso   1.00
H255   H    -0.00176   0.81126   0.93201   0.00000  Uiso   1.00
H256   H    -0.02899   0.80436   0.84430   0.00000  Uiso   1.00
H257   H    -0.12897   0.77151   0.90985   0.00000  Uiso   1.00
H258   H     0.39002   0.15519   0.27647   0.00000  Uiso   1.00
H259   H     0.26842   0.07157   0.29255   0.00000  Uiso   1.00
H260   H     0.31414   0.16181   0.33847   0.00000  Uiso   1.00
H261   H     0.13597   0.19676   0.28181   0.00000  Uiso   1.00
H262   H     0.20937   0.29425   0.22367   0.00000  Uiso   1.00
H263   H     0.25019   0.27900   0.30461   0.00000  Uiso   1.00
H264   H     0.45748   0.04201   0.43327   0.00000  Uiso   1.00
H265   H     0.42860  -0.01250   0.36055   0.00000  Uiso   1.00
H266   H     0.54682   0.07628   0.37419   0.00000  Uiso   1.00
H267   H     0.43189   0.90113   0.51974   0.00000  Uiso   1.00
H268   H     0.47534   0.83016   0.50903   0.00000  Uiso   1.00
H269   H     0.38513   0.83691   0.45470   0.00000  Uiso   1.00
H270   H     0.37140   0.14925   0.55023   0.00000  Uiso   1.00
H271   H     0.24520   0.10464   0.52490   0.00000  Uiso   1.00
H272   H     0.31037   0.05325   0.50781   0.00000  Uiso   1.00
H273   H     0.10036  -0.06714   0.55667   0.00000  Uiso   1.00
H274   H     0.10875  -0.10822   0.63788   0.00000  Uiso   1.00
H275   H     0.18219  -0.11666   0.57635   0.00000  Uiso   1.00
H276   H     0.35872  -0.04200   0.61365   0.00000  Uiso   1.00
H277   H     0.28798  -0.08697   0.69085   0.00000  Uiso   1.00
H278   H     0.38645   0.01854   0.68383   0.00000  Uiso   1.00
H279   H     0.55451   0.15764   0.68790   0.00000  Uiso   1.00
H280   H     0.66858   0.22189   0.70642   0.00000  Uiso   1.00
H281   H     0.57585   0.20731   0.76360   0.00000  Uiso   1.00
H282   H     0.49289   0.23572   0.87414   0.00000  Uiso   1.00
H283   H     0.39319   0.18895   0.81547   0.00000  Uiso   1.00
H284   H     0.46622   0.14482   0.84866   0.00000  Uiso   1.00
H285   H     0.59062   0.25163   0.00948   0.00000  Uiso   1.00
H286   H     0.60197   0.19359   0.08770   0.00000  Uiso   1.00
H287   H     0.49321   0.20948   0.07796   0.00000  Uiso   1.00
H288   H     0.51725   0.34121   0.28416   0.00000  Uiso   1.00
H289   H     0.60380   0.42306   0.23214   0.00000  Uiso   1.00
H290   H     0.58967   0.32141   0.22878   0.00000  Uiso   1.00
H291   H     0.36564   0.42004   0.22891   0.00000  Uiso   1.00
H292   H     0.34220   0.40983   0.14402   0.00000  Uiso   1.00
H293   H     0.44049   0.49239   0.15483   0.00000  Uiso   1.00
H294   H     0.63028   0.44995   0.92692   0.00000  Uiso   1.00
H295   H     0.52366   0.34867   0.97637   0.00000  Uiso   1.00
H296   H     0.65662   0.39461   0.99328   0.00000  Uiso   1.00
H297   H     0.20270   0.28518   0.50465   0.00000  Uiso   1.00
H298   H     0.23615   0.33758   0.42313   0.00000  Uiso   1.00
H299   H     0.19391   0.22534   0.43630   0.00000  Uiso   1.00
H300   H     0.11900   0.52641   0.51586   0.00000  Uiso   1.00
H301   H     0.19911   0.48907   0.47597   0.00000  Uiso   1.00
H302   H     0.18126   0.57334   0.43685   0.00000  Uiso   1.00
H303   H     0.29049   0.56481   0.35417   0.00000  Uiso   1.00
H304   H     0.24730   0.45935   0.36587   0.00000  Uiso   1.00
H305   H     0.32235   0.52162   0.29699   0.00000  Uiso   1.00
H306   H     0.44193   0.49360   0.51272   0.00000  Uiso   1.00
H307   H     0.39045   0.40354   0.47998   0.00000  Uiso   1.00
H308   H     0.31588   0.45558   0.49410   0.00000  Uiso   1.00
H309   H     0.55097   0.49359   0.36130   0.00000  Uiso   1.00
H310   H     0.51433   0.53513   0.28965   0.00000  Uiso   1.00
H311   H     0.43634   0.43407   0.32447   0.00000  Uiso   1.00
H312   H     0.38946   0.47396   0.85483   0.00000  Uiso   1.00
H313   H     0.45378   0.41811   0.89559   0.00000  Uiso   1.00
H314   H     0.52278   0.51471   0.84931   0.00000  Uiso   1.00
H315   H     0.52748   0.68351   0.94465   0.00000  Uiso   1.00
H316   H     0.53108   0.65711   0.86473   0.00000  Uiso   1.00
H317   H     0.62202   0.65853   0.91980   0.00000  Uiso   1.00
H318   H     0.28869   0.44479   0.97140   0.00000  Uiso   1.00
H319   H     0.31265   0.54961   0.94387   0.00000  Uiso   1.00
H320   H     0.34280   0.51850   1.02875   0.00000  Uiso   1.00
H321   H     0.15758   0.37177   0.69253   0.00000  Uiso   1.00
H322   H     0.20229   0.36563   0.61219   0.00000  Uiso   1.00
H323   H     0.13487   0.42625   0.62365   0.00000  Uiso   1.00
H324   H     0.22598   0.52484   0.73514   0.00000  Uiso   1.00
H325   H     0.31702   0.62019   0.68999   0.00000  Uiso   1.00
H326   H     0.35765   0.55530   0.74667   0.00000  Uiso   1.00
H327   H     0.40306   0.44209   0.71507   0.00000  Uiso   1.00
H328   H     0.47856   0.52553   0.65768   0.00000  Uiso   1.00
H329   H     0.40000   0.42893   0.62876   0.00000  Uiso   1.00
H330   H     0.38608   0.64645   0.15786   0.00000  Uiso   1.00
H331   H     0.42693   0.71138   0.21836   0.00000  Uiso   1.00
H332   H     0.43807   0.61646   0.22754   0.00000  Uiso   1.00
H333   H     0.67184   0.55389   0.11978   0.00000  Uiso   1.00
H334   H     0.72795   0.58299   0.03799   0.00000  Uiso   1.00
H335   H     0.72499   0.49254   0.09335   0.00000  Uiso   1.00
H336   H     0.60244   0.62444   0.16376   0.00000  Uiso   1.00
H337   H     0.66758   0.70215   0.09085   0.00000  Uiso   1.00
H338   H     0.54243   0.62316   0.08912   0.00000  Uiso   1.00
H339   H     0.24797   0.73729   0.24291   0.00000  Uiso   1.00
H340   H     0.33443   0.77706   0.17168   0.00000  Uiso   1.00
H341   H     0.23565   0.80357   0.17076   0.00000  Uiso   1.00
H342   H     0.51665   0.94988   0.96721   0.00000  Uiso   1.00
H343   H     0.55801   0.88006   0.94480   0.00000  Uiso   1.00
H344   H     0.62781   0.96442   0.99897   0.00000  Uiso   1.00
H345   H     0.40732   0.78928   0.90872   0.00000  Uiso   1.00
H346   H     0.28100   0.71555   0.90350   0.00000  Uiso   1.00
H347   H     0.35041   0.68625   0.95743   0.00000  Uiso   1.00
H348   H     0.37281   0.91728   0.93798   0.00000  Uiso   1.00
H349   H     0.28984   0.90042   1.01502   0.00000  Uiso   1.00
H350   H     0.24432   0.86811   0.94187   0.00000  Uiso   1.00
H351   H     0.47368   0.95980   0.76618   0.00000  Uiso   1.00
H352   H     0.44743   1.01524   0.82008   0.00000  Uiso   1.00
H353   H     0.50979   0.96158   0.85141   0.00000  Uiso   1.00
H354   H     0.16481   0.72767   1.08778   0.00000  Uiso   1.00
H355   H     0.19263   0.64591   1.06715   0.00000  Uiso   1.00
H356   H     0.12527   0.69500   1.00874   0.00000  Uiso   1.00
H357   H     0.42905   0.74722   0.70451   0.00000  Uiso   1.00
H358   H     0.41407   0.75892   0.61624   0.00000  Uiso   1.00
H359   H     0.45770   0.83944   0.66977   0.00000  Uiso   1.00
H360   H     0.54939   0.67780   0.73619   0.00000  Uiso   1.00
H361   H     0.67676   0.72558   0.69665   0.00000  Uiso   1.00
H362   H     0.57330   0.65819   0.65205   0.00000  Uiso   1.00
H363   H     0.63962   0.91198   0.71064   0.00000  Uiso   1.00
H364   H     0.73434   0.92807   0.65681   0.00000  Uiso   1.00
H365   H     0.69765   0.85921   0.73512   0.00000  Uiso   1.00
H366   H     0.76560   1.12979   0.71424   0.00000  Uiso   1.00
H367   H     0.66382   1.04569   0.69303   0.00000  Uiso   1.00
H368   H     0.72259   1.03367   0.76183   0.00000  Uiso   1.00
H369   H     0.97383   0.06237   0.12387   0.00000  Uiso   1.00
H370   H     0.96533   0.00539   0.05783   0.00000  Uiso   1.00
H371   H     0.91339  -0.04942   0.14434   0.00000  Uiso   1.00
H372   H     0.57827   0.18979   0.20836   0.00000  Uiso   1.00
H373   H     0.61429   0.16341   0.28838   0.00000  Uiso   1.00
H374   H     0.51607   0.08179   0.25742   0.00000  Uiso   1.00
H375   H     1.06823   0.34202   0.88363   0.00000  Uiso   1.00
H376   H     1.19866   0.40134   0.87586   0.00000  Uiso   1.00
H377   H     1.13795   0.34363   0.95461   0.00000  Uiso   1.00
H378   H     0.98381   0.17821   0.98632   0.00000  Uiso   1.00
H379   H     0.97935   0.27403   0.98656   0.00000  Uiso   1.00
H380   H     0.93183   0.21046   0.91726   0.00000  Uiso   1.00
H381   H     0.79931   0.15793   0.57269   0.00000  Uiso   1.00
H382   H     0.83698   0.13739   0.49297   0.00000  Uiso   1.00
H383   H     0.77122   0.05659   0.57283   0.00000  Uiso   1.00
H384   H     0.55614  -0.01043   0.60071   0.00000  Uiso   1.00
H385   H     0.50242   0.05245   0.56160   0.00000  Uiso   1.00
H386   H     0.60047   0.09666   0.61546   0.00000  Uiso   1.00
H387   H     0.92526   0.15288   0.21694   0.00000  Uiso   1.00
H388   H     0.89527   0.04285   0.24160   0.00000  Uiso   1.00
H389   H     0.96798   0.12363   0.29266   0.00000  Uiso   1.00
H390   H     0.85085   0.38875   0.05689   0.00000  Uiso   1.00
H391   H     0.82029   0.38366   0.13756   0.00000  Uiso   1.00
H392   H     0.72737   0.32895   0.08761   0.00000  Uiso   1.00
H393   H     1.00046   0.34716   0.09135   0.00000  Uiso   1.00
H394   H     0.97459   0.24795   0.11996   0.00000  Uiso   1.00
H395   H     0.97833   0.30878   0.17778   0.00000  Uiso   1.00
H396   H     0.85163   0.17372   0.39011   0.00000  Uiso   1.00
H397   H     0.74666   0.17236   0.35264   0.00000  Uiso   1.00
H398   H     0.85549   0.22612   0.30516   0.00000  Uiso   1.00
H399   H     0.79912   0.30533   0.37967   0.00000  Uiso   1.00
H400   H     0.84503   0.31979   0.46057   0.00000  Uiso   1.00
H401   H     0.78218   0.37583   0.41683   0.00000  Uiso   1.00
H402   H     0.60449   0.27782   0.34807   0.00000  Uiso   1.00
H403   H     0.56919   0.31348   0.41369   0.00000  Uiso   1.00
H404   H     0.50656   0.20620   0.41001   0.00000  Uiso   1.00
H405   H     0.67688   0.24282   0.57783   0.00000  Uiso   1.00
H406   H     0.55391   0.21121   0.54980   0.00000  Uiso   1.00
H407   H     0.65089   0.32493   0.53685   0.00000  Uiso   1.00
H408   H     0.92565   0.31782   0.83409   0.00000  Uiso   1.00
H409   H     0.91382   0.39057   0.77156   0.00000  Uiso   1.00
H410   H     0.82631   0.28466   0.77695   0.00000  Uiso   1.00
H411   H     0.79700   0.48361   0.48812   0.00000  Uiso   1.00
H412   H     0.91669   0.55248   0.51420   0.00000  Uiso   1.00
H413   H     0.82444   0.58531   0.50076   0.00000  Uiso   1.00
H414   H     0.62725   0.44469   0.66869   0.00000  Uiso   1.00
H415   H     0.61810   0.41070   0.58185   0.00000  Uiso   1.00
H416   H     0.64069   0.51340   0.58950   0.00000  Uiso   1.00
H417   H     0.68593   0.40114   0.85566   0.00000  Uiso   1.00
H418   H     0.70426   0.35461   0.78455   0.00000  Uiso   1.00
H419   H     0.79261   0.45611   0.79545   0.00000  Uiso   1.00
H420   H     0.88209   0.43133   0.65843   0.00000  Uiso   1.00
H421   H     0.80245   0.37425   0.60165   0.00000  Uiso   1.00
H422   H     0.75065   0.37447   0.68628   0.00000  Uiso   1.00
H423   H     1.08174   0.90859   0.04635   0.00000  Uiso   1.00
H424   H     1.07198   0.81518   0.02746   0.00000  Uiso   1.00
H425   H     1.14779   0.86334   0.09717   0.00000  Uiso   1.00
H426   H     0.89902   0.82399   0.04890   0.00000  Uiso   1.00
H427   H     0.83600   0.81901   0.12974   0.00000  Uiso   1.00
H428   H     0.81610   0.72544   0.10104   0.00000  Uiso   1.00
H429   H     1.02571   0.68625   0.18635   0.00000  Uiso   1.00
H430   H     0.96498   0.66123   0.10736   0.00000  Uiso   1.00
H431   H     0.89412   0.64517   0.18273   0.00000  Uiso   1.00
H432   H     0.64927   0.81000  -0.03129   0.00000  Uiso   1.00
H433   H     0.74429   0.78474  -0.05072   0.00000  Uiso   1.00
H434   H     0.69240   0.83545  -0.10991   0.00000  Uiso   1.00
H435   H     0.84643   1.07213   0.90322   0.00000  Uiso   1.00
H436   H     0.72518   1.01155   0.89397   0.00000  Uiso   1.00
H437   H     0.82130   1.01397   0.83867   0.00000  Uiso   1.00
H438   H     0.65784   0.66993   0.41492   0.00000  Uiso   1.00
H439   H     0.75806   0.66874   0.45994   0.00000  Uiso   1.00
H440   H     0.68470   0.58256   0.42431   0.00000  Uiso   1.00
H441   H     0.68327   0.59805   0.26934   0.00000  Uiso   1.00
H442   H     0.73432   0.70422   0.22346   0.00000  Uiso   1.00
H443   H     0.63459   0.65734   0.29385   0.00000  Uiso   1.00
H444   H     0.90561   0.65290   0.38887   0.00000  Uiso   1.00
H445   H     0.92055   0.66423   0.30003   0.00000  Uiso   1.00
H446   H     0.82967   0.57168   0.34074   0.00000  Uiso   1.00
H447   H     0.68610   0.57212   0.72948   0.00000  Uiso   1.00
H448   H     0.74639   0.66399   0.75917   0.00000  Uiso   1.00
H449   H     0.77016   0.58228   0.78234   0.00000  Uiso   1.00
H450   H     0.96039   0.76563   0.71522   0.00000  Uiso   1.00
H451   H     1.01665   0.73437   0.65250   0.00000  Uiso   1.00
H452   H     0.98251   0.67394   0.73423   0.00000  Uiso   1.00
H453   H     0.84678   0.91496   0.79223   0.00000  Uiso   1.00
H454   H     0.96320   0.93224   0.75842   0.00000  Uiso   1.00
H455   H     0.94725   1.01492   0.78783   0.00000  Uiso   1.00
H456   H     0.94160   0.87118   0.46570   0.00000  Uiso   1.00
H457   H     0.91410   0.76157   0.45496   0.00000  Uiso   1.00
H458   H     0.99094   0.81048   0.51897   0.00000  Uiso   1.00
H459   H     0.82812   0.90169   0.57956   0.00000  Uiso   1.00
H460   H     0.92969   0.89122   0.61245   0.00000  Uiso   1.00
H461   H     0.81557   0.82432   0.65281   0.00000  Uiso   1.00
loop_
_geom_bond_atom_site_label_1
_geom_bond_atom_site_label_2
_geom_bond_distance
_geom_bond_site_symmetry_2
_ccdc_geom_bond_type
Si1    O53     1.599   .     S
Si1    O79     1.589   .     S
Si1    C52     1.887   1_545 S
Si1    O73     1.572   1_545 S
Si2    O53     1.606   .     S
Si2    C54     1.839   .     S
Si2    O57     1.623   1_554 S
Si2    O93     1.605   1_554 S
Si3    C60     1.942   .     S
Si3    O64     1.578   .     S
Si3    C55     1.866   1_455 S
Si3    O143    1.608   1_455 S
Si4    O62     1.598   .     S
Si4    O90     1.572   .     S
Si4    C56     1.826   1_545 S
Si4    O78     1.629   1_545 S
Si5    O57     1.605   .     S
Si5    C58     1.836   .     S
Si5    C59     1.911   1_455 S
Si5    C140    1.876   1_455 S
Si6    C61     1.877   .     S
Si6    O62     1.603   .     S
Si6    C63     1.841   .     S
Si6    O88     1.588   .     S
Si7    O64     1.614   .     S
Si7    C65     1.875   .     S
Si7    C66     1.921   .     S
Si7    C100    1.895   .     S
Si8    C67     1.850   .     S
Si8    C68     1.807   .     S
Si8    C69     1.841   1_455 S
Si8    O164    1.611   1_455 S
Si9    C70     1.876   .     S
Si9    C71     1.893   .     S
Si9    C72     1.877   .     S
Si9    O102    1.593   .     S
Si10   O73     1.571   .     S
Si10   O74     1.627   .     S
Si10   O171    1.571   1_455 S
Si10   O186    1.640   1_455 S
Si11   O74     1.576   .     S
Si11   C75     1.832   .     S
Si11   C76     1.904   .     S
Si11   O119    1.632   .     S
Si12   C77     1.883   .     S
Si12   O78     1.584   .     S
Si12   O175    1.586   1_455 S
Si12   C193    1.926   1_455 S
Si13   O82     1.590   .     S
Si13   O138    1.622   .     S
Si13   O118    1.615   1_545 S
Si13   O121    1.617   1_545 S
Si14   O79     1.581   .     S
Si14   C80     1.868   .     S
Si14   C81     1.840   .     S
Si14   O94     1.551   .     S
Si15   O82     1.597   .     S
Si15   C95     1.928   .     S
Si15   O91     1.573   1_554 S
Si15   O152    1.651   1_554 S
Si16   C83     1.777   .     S
Si16   O144    1.578   .     S
Si16   C84     1.867   1_545 S
Si16   O127    1.577   1_545 S
Si17   C85     1.830   .     S
Si17   C86     1.872   .     S
Si17   C87     1.836   .     S
Si17   O88     1.592   .     S
Si18   C89     1.883   .     S
Si18   O150    1.582   .     S
Si18   C131    1.860   1_545 S
Si18   C136    1.845   1_545 S
Si19   O90     1.594   .     S
Si19   O91     1.568   .     S
Si19   C92     1.840   .     S
Si19   O93     1.572   .     S
Si20   O94     1.610   .     S
Si20   C96     1.936   .     S
Si20   C97     1.856   .     S
Si20   O98     1.584   .     S
Si21   O98     1.578   .     S
Si21   C115    1.885   .     S
Si21   C99     1.872   1_554 S
Si21   O107    1.567   1_554 S
Si22   C101    1.847   .     S
Si22   O102    1.626   .     S
Si22   O110    1.617   .     S
Si22   O123    1.629   .     S
Si23   C103    1.829   .     S
Si23   C104    1.856   .     S
Si23   C105    1.890   .     S
Si23   O124    1.588   .     S
Si24   C106    1.840   .     S
Si24   O107    1.610   .     S
Si24   C108    1.881   .     S
Si24   C109    1.874   .     S
Si25   O110    1.637   .     S
Si25   C111    1.889   .     S
Si25   C112    1.860   .     S
Si25   C113    1.830   .     S
Si26   C114    1.824   .     S
Si26   C116    1.829   .     S
Si26   O120    1.618   .     S
Si26   O172    1.572   .     S
Si27   C117    1.880   .     S
Si27   O118    1.586   .     S
Si27   O119    1.615   .     S
Si27   O125    1.605   .     S
Si28   O120    1.614   .     S
Si28   O121    1.614   .     S
Si28   C122    1.868   1_554 S
Si28   O129    1.564   1_554 S
Si29   O123    1.619   .     S
Si29   O124    1.623   .     S
Si29   O126    1.611   .     S
Si29   O183    1.588   .     S
Si30   O125    1.598   .     S
Si30   O126    1.630   .     S
Si30   O127    1.597   .     S
Si30   O174    1.630   .     S
Si31   C128    1.869   .     S
Si31   O129    1.565   .     S
Si31   C130    1.868   .     S
Si31   C132    1.900   .     S
Si32   C133    1.988   .     S
Si32   C134    1.881   .     S
Si32   C135    1.855   .     S
Si32   O185    1.628   .     S
Si33   C137    1.890   .     S
Si33   O142    1.645   .     S
Si33   O173    1.609   1_545 S
Si33   O178    1.609   1_545 S
Si34   O138    1.597   .     S
Si34   C139    1.839   .     S
Si34   O148    1.574   .     S
Si34   O153    1.591   .     S
Si35   O142    1.556   .     S
Si35   O154    1.597   .     S
Si35   C141    1.804   1_554 S
Si35   O151    1.594   1_554 S
Si36   O143    1.611   .     S
Si36   O149    1.541   .     S
Si36   O184    1.558   1_545 S
Si36   O189    1.591   1_545 S
Si37   O144    1.566   .     S
Si37   C145    1.851   .     S
Si37   C146    1.880   .     S
Si37   O157    1.548   .     S
Si38   C147    1.897   .     S
Si38   O148    1.579   .     S
Si38   O149    1.582   .     S
Si38   C158    1.867   .     S
Si39   O150    1.593   .     S
Si39   O151    1.607   .     S
Si39   O152    1.569   .     S
Si39   O162    1.644   .     S
Si40   O153    1.562   .     S
Si40   O154    1.550   .     S
Si40   C155    1.788   .     S
Si40   C156    1.873   .     S
Si41   O157    1.583   .     S
Si41   C159    1.809   .     S
Si41   C160    1.881   .     S
Si41   C161    1.832   .     S
Si42   O162    1.624   .     S
Si42   C163    1.792   .     S
Si42   O164    1.595   .     S
Si42   C167    1.811   .     S
Si43   C165    1.884   .     S
Si43   C166    1.909   .     S
Si43   C168    1.852   .     S
Si43   O191    1.565   .     S
Si44   C169    1.897   .     S
Si44   C170    1.843   .     S
Si44   O171    1.577   .     S
Si44   C176    1.899   .     S
Si45   O172    1.635   .     S
Si45   O173    1.601   .     S
Si45   O174    1.637   .     S
Si45   O187    1.588   .     S
Si46   C177    1.823   .     S
Si46   O178    1.622   .     S
Si46   O175    1.643   1_554 S
Si46   C179    1.807   1_554 S
Si47   C180    1.864   .     S
Si47   C181    1.862   .     S
Si47   C182    1.883   .     S
Si47   O188    1.586   .     S
Si48   O183    1.562   .     S
Si48   O184    1.605   .     S
Si48   O185    1.572   .     S
Si48   O195    1.586   .     S
Si49   O186    1.554   .     S
Si49   O187    1.609   .     S
Si49   O188    1.587   .     S
Si49   O189    1.551   .     S
Si50   C190    1.862   .     S
Si50   O191    1.618   .     S
Si50   C192    1.848   .     S
Si50   O196    1.599   .     S
Si51   C194    1.895   .     S
Si51   O195    1.621   .     S
Si51   O196    1.594   .     S
Si51   C197    1.898   .     S
C52    H198    1.158   .     S
C52    H199    1.138   .     S
C52    H200    1.103   .     S
C52    Si1     1.887   1_565 S
C54    H201    1.116   .     S
C54    H202    1.038   .     S
C54    H203    1.091   .     S
C55    H204    1.052   .     S
C55    H205    1.082   .     S
C55    H206    1.090   .     S
C55    Si3     1.866   1_655 S
C56    H207    1.146   .     S
C56    H208    1.142   .     S
C56    H209    1.037   .     S
C56    Si4     1.826   1_565 S
O57    Si2     1.623   1_556 S
C58    H210    1.142   .     S
C58    H211    1.120   .     S
C58    H212    1.069   .     S
C59    H213    1.093   .     S
C59    H214    1.132   .     S
C59    H215    1.125   .     S
C59    Si5     1.911   1_655 S
C60    H216    1.088   .     S
C60    H217    1.119   .     S
C60    H218    1.099   .     S
C61    H219    1.100   .     S
C61    H220    1.120   .     S
C61    H221    1.123   .     S
C63    H222    1.087   .     S
C63    H223    1.103   .     S
C63    H224    1.106   .     S
C65    H225    1.090   .     S
C65    H226    1.052   .     S
C65    H227    1.113   .     S
C66    H228    1.119   .     S
C66    H229    1.076   .     S
C66    H230    1.091   .     S
C67    H231    1.110   .     S
C67    H232    1.121   .     S
C67    H233    1.139   .     S
C68    H234    1.096   .     S
C68    H235    1.078   .     S
C68    H236    1.104   .     S
C69    H237    1.081   .     S
C69    H238    1.098   .     S
C69    H239    1.089   .     S
C69    Si8     1.841   1_655 S
C70    H240    1.052   .     S
C70    H241    1.084   .     S
C70    H242    1.122   .     S
C71    H243    1.139   .     S
C71    H244    1.070   .     S
C71    H245    1.132   .     S
C72    H246    1.067   .     S
C72    H247    1.101   .     S
C72    H248    1.082   .     S
O73    Si1     1.572   1_565 S
C75    H249    1.099   .     S
C75    H250    1.107   .     S
C75    H251    1.148   .     S
C76    H252    1.171   .     S
C76    H253    1.179   .     S
C76    H254    1.094   .     S
C77    H255    1.103   .     S
C77    H256    1.093   .     S
C77    H257    1.122   .     S
O78    Si4     1.629   1_565 S
C80    H258    1.084   .     S
C80    H259    1.130   .     S
C80    H260    1.134   .     S
C81    H261    1.120   .     S
C81    H262    1.124   .     S
C81    H263    1.129   .     S
C83    H264    1.057   .     S
C83    H265    1.136   .     S
C83    H266    1.097   .     S
C84    H267    1.048   .     S
C84    H268    1.116   .     S
C84    H269    1.085   .     S
C84    Si16    1.867   1_565 S
C85    H270    1.123   .     S
C85    H271    1.113   .     S
C85    H272    1.161   .     S
C86    H273    1.129   .     S
C86    H274    1.112   .     S
C86    H275    1.124   .     S
C87    H276    1.097   .     S
C87    H277    1.092   .     S
C87    H278    1.137   .     S
C89    H279    1.091   .     S
C89    H280    1.083   .     S
C89    H281    1.136   .     S
O91    Si15    1.573   1_556 S
C92    H282    1.164   .     S
C92    H283    1.089   .     S
C92    H284    1.056   .     S
O93    Si2     1.605   1_556 S
C95    H285    1.122   .     S
C95    H286    1.101   .     S
C95    H287    1.101   .     S
C96    H288    1.092   .     S
C96    H289    1.058   .     S
C96    H290    1.127   .     S
C97    H291    1.141   .     S
C97    H292    1.098   .     S
C97    H293    1.130   .     S
C99    H294    1.124   .     S
C99    H295    1.185   .     S
C99    H296    1.106   .     S
C99    Si21    1.872   1_556 S
C100   H297    1.114   .     S
C100   H298    1.032   .     S
C100   H299    1.156   .     S
C101   H300    1.098   .     S
C101   H301    1.126   .     S
C101   H302    1.089   .     S
C103   H303    1.054   .     S
C103   H304    1.082   .     S
C103   H305    1.097   .     S
C104   H306    1.129   .     S
C104   H307    1.103   .     S
C104   H308    1.105   .     S
C105   H309    1.150   .     S
C105   H310    1.102   .     S
C105   H311    1.064   .     S
C106   H312    1.125   .     S
C106   H313    1.120   .     S
C106   H314    1.096   .     S
O107   Si21    1.567   1_556 S
C108   H315    1.076   .     S
C108   H316    1.128   .     S
C108   H317    1.129   .     S
C109   H318    1.111   .     S
C109   H319    1.093   .     S
C109   H320    1.137   .     S
C111   H321    1.145   .     S
C111   H322    1.113   .     S
C111   H323    1.119   .     S
C112   H324    1.113   .     S
C112   H325    1.131   .     S
C112   H326    1.140   .     S
C113   H327    1.118   .     S
C113   H328    1.098   .     S
C113   H329    1.106   .     S
C114   H330    1.098   .     S
C114   H331    1.052   .     S
C114   H332    1.097   .     S
C115   H333    1.139   .     S
C115   H334    1.131   .     S
C115   H335    1.088   .     S
C116   H336    1.085   .     S
C116   H337    1.124   .     S
C116   H338    1.073   .     S
C117   H339    1.131   .     S
C117   H340    1.134   .     S
C117   H341    1.096   .     S
O118   Si13    1.615   1_565 S
O121   Si13    1.617   1_565 S
C122   H342    1.105   .     S
C122   H343    1.125   .     S
C122   H344    1.094   .     S
C122   Si28    1.868   1_556 S
O127   Si16    1.577   1_565 S
C128   H345    1.092   .     S
C128   H346    1.131   .     S
C128   H347    1.036   .     S
O129   Si28    1.564   1_556 S
C130   H348    1.105   .     S
C130   H349    1.124   .     S
C130   H350    1.117   .     S
C131   H351    1.114   .     S
C131   H352    1.037   .     S
C131   H353    1.116   .     S
C131   Si18    1.860   1_565 S
C132   H354    1.084   .     S
C132   H355    1.165   .     S
C132   H356    1.173   .     S
C133   H357    1.064   .     S
C133   H358    1.105   .     S
C133   H359    1.110   .     S
C134   H360    1.147   .     S
C134   H361    1.129   .     S
C134   H362    1.144   .     S
C135   H363    1.071   .     S
C135   H364    1.059   .     S
C135   H365    1.093   .     S
C136   H366    1.104   .     S
C136   H367    1.032   .     S
C136   H368    1.039   .     S
C136   Si18    1.845   1_565 S
C137   H369    1.058   .     S
C137   H370    1.172   .     S
C137   H371    1.097   .     S
C139   H372    1.132   .     S
C139   H373    1.062   .     S
C139   H374    1.125   .     S
C140   H375    1.152   .     S
C140   H376    1.103   .     S
C140   H377    1.138   .     S
C140   Si5     1.876   1_655 S
C141   H378    1.107   .     S
C141   H379    1.100   .     S
C141   H380    1.173   .     S
C141   Si35    1.804   1_556 S
O143   Si3     1.608   1_655 S
C145   H381    1.122   .     S
C145   H382    1.133   .     S
C145   H383    1.095   .     S
C146   H384    1.107   .     S
C146   H385    1.126   .     S
C146   H386    1.135   .     S
C147   H387    1.087   .     S
C147   H388    1.122   .     S
C147   H389    1.107   .     S
O151   Si35    1.594   1_556 S
O152   Si15    1.651   1_556 S
C155   H390    1.121   .     S
C155   H391    1.073   .     S
C155   H392    1.104   .     S
C156   H393    1.074   .     S
C156   H394    1.119   .     S
C156   H395    1.083   .     S
C158   H396    1.136   .     S
C158   H397    1.078   .     S
C158   H398    1.120   .     S
C159   H399    1.078   .     S
C159   H400    1.133   .     S
C159   H401    1.070   .     S
C160   H402    1.096   .     S
C160   H403    1.145   .     S
C160   H404    1.127   .     S
C161   H405    1.102   .     S
C161   H406    1.142   .     S
C161   H407    1.136   .     S
C163   H408    1.098   .     S
C163   H409    1.099   .     S
C163   H410    1.133   .     S
O164   Si8     1.611   1_655 S
C165   H411    1.110   .     S
C165   H412    1.121   .     S
C165   H413    1.135   .     S
C166   H414    1.109   .     S
C166   H415    1.148   .     S
C166   H416    1.121   .     S
C167   H417    1.118   .     S
C167   H418    1.108   .     S
C167   H419    1.069   .     S
C168   H420    1.081   .     S
C168   H421    1.147   .     S
C168   H422    1.123   .     S
C169   H423    1.100   .     S
C169   H424    1.145   .     S
C169   H425    1.097   .     S
C170   H426    1.110   .     S
C170   H427    1.163   .     S
C170   H428    1.112   .     S
O171   Si10    1.571   1_655 S
O173   Si33    1.609   1_565 S
O175   Si12    1.586   1_655 S
O175   Si46    1.643   1_556 S
C176   H429    1.106   .     S
C176   H430    1.126   .     S
C176   H431    1.107   .     S
C177   H432    1.074   .     S
C177   H433    1.146   .     S
C177   H434    1.063   .     S
O178   Si33    1.609   1_565 S
C179   H435    1.078   .     S
C179   H436    1.118   .     S
C179   H437    1.134   .     S
C179   Si46    1.807   1_556 S
C180   H438    1.087   .     S
C180   H439    1.090   .     S
C180   H440    1.066   .     S
C181   H441    1.076   .     S
C181   H442    1.169   .     S
C181   H443    1.079   .     S
C182   H444    1.093   .     S
C182   H445    1.099   .     S
C182   H446    1.119   .     S
O184   Si36    1.558   1_565 S
O186   Si10    1.640   1_655 S
O189   Si36    1.591   1_565 S
C190   H447    1.036   .     S
C190   H448    1.003   .     S
C190   H449    1.064   .     S
C192   H450    1.150   .     S
C192   H451    1.084   .     S
C192   H452    1.144   .     S
C193   H453    1.153   .     S
C193   H454    1.110   .     S
C193   H455    1.116   .     S
C193   Si12    1.926   1_655 S
C194   H456    1.139   .     S
C194   H457    1.126   .     S
C194   H458    1.160   .     S
C197   H459    1.117   .     S
C197   H460    1.099   .     S
C197   H461    1.074   .     S
