data_333-9-11-16-15-30-6
_audit_creation_date              2025-03-07
_audit_creation_method            'Materials Studio'
_symmetry_space_group_name_H-M    'P1'
_symmetry_Int_Tables_number       1
_symmetry_cell_setting            triclinic
loop_
_symmetry_equiv_pos_as_xyz
  x,y,z
_cell_length_a                    16.9662
_cell_length_b                    17.6580
_cell_length_c                    19.6919
_cell_angle_alpha                 92.0568
_cell_angle_beta                  88.1670
_cell_angle_gamma                 125.8494
loop_
_atom_site_label
_atom_site_type_symbol
_atom_site_fract_x
_atom_site_fract_y
_atom_site_fract_z
_atom_site_U_iso_or_equiv
_atom_site_adp_type
_atom_site_occupancy
Si1    Si    0.18266  -0.01984   0.13876   0.00000  Uiso   1.00
Si2    Si    0.21939   0.21628   0.24476   0.00000  Uiso   1.00
Si3    Si    0.12238   0.02757   0.86585   0.00000  Uiso   1.00
Si4    Si    0.09339   0.18301   0.84238   0.00000  Uiso   1.00
Si5    Si    0.00050   0.48111   0.23340   0.00000  Uiso   1.00
Si6    Si    0.01738   0.45721   0.46985   0.00000  Uiso   1.00
Si7    Si    0.18385   0.38210   0.89653   0.00000  Uiso   1.00
Si8    Si   -0.00045   0.85940   0.23110   0.00000  Uiso   1.00
Si9    Si    0.04257   0.75479   0.50234   0.00000  Uiso   1.00
Si10   Si   -0.00632   0.82151   0.91362   0.00000  Uiso   1.00
Si11   Si    0.06786   0.95487   0.72170   0.00000  Uiso   1.00
Si12   Si    0.35356   0.15676   0.22866   0.00000  Uiso   1.00
Si13   Si    0.48631   0.19514   0.00619   0.00000  Uiso   1.00
Si14   Si    0.48405   0.01819   0.44078   0.00000  Uiso   1.00
Si15   Si    0.46552   0.14814   0.35147   0.00000  Uiso   1.00
Si16   Si    0.53020  -0.01218   0.70334   0.00000  Uiso   1.00
Si17   Si    0.34023   0.16788   0.90580   0.00000  Uiso   1.00
Si18   Si    0.50919   0.14381   0.66830   0.00000  Uiso   1.00
Si19   Si    0.51627   0.31703   0.13682   0.00000  Uiso   1.00
Si20   Si    0.49710   0.45658   0.07371   0.00000  Uiso   1.00
Si21   Si    0.40496   0.22199   0.46546   0.00000  Uiso   1.00
Si22   Si    0.33996   0.50563   0.60149   0.00000  Uiso   1.00
Si23   Si    0.57782   0.49392   0.32454   0.00000  Uiso   1.00
Si24   Si    0.47499   0.25214   0.78186   0.00000  Uiso   1.00
Si25   Si    0.55299   0.60914   0.63936   0.00000  Uiso   1.00
Si26   Si    0.32696   0.74608   0.20310   0.00000  Uiso   1.00
Si27   Si    0.35027   0.77028  -0.09367   0.00000  Uiso   1.00
Si28   Si    0.42243   0.66371   0.27610   0.00000  Uiso   1.00
Si29   Si    0.60344   0.78411   0.71491   0.00000  Uiso   1.00
Si30   Si    0.34904   0.87392   0.78529   0.00000  Uiso   1.00
Si31   Si    0.58577   0.89117   0.60228   0.00000  Uiso   1.00
Si32   Si    0.90004  -0.01419   0.05696   0.00000  Uiso   1.00
Si33   Si    0.61292   0.15195   0.25972   0.00000  Uiso   1.00
Si34   Si    0.85034   0.04988   0.38296   0.00000  Uiso   1.00
Si35   Si    0.63360   0.18044   0.54050   0.00000  Uiso   1.00
Si36   Si    0.78634   0.17107   0.33243   0.00000  Uiso   1.00
Si37   Si    0.65465   0.22127   0.91963   0.00000  Uiso   1.00
Si38   Si    0.77065   0.21299   0.65134   0.00000  Uiso   1.00
Si39   Si    0.70548   0.47908   0.21952   0.00000  Uiso   1.00
Si40   Si    0.93949   0.58558   0.05163   0.00000  Uiso   1.00
Si41   Si    0.79623   0.31736   0.43393   0.00000  Uiso   1.00
Si42   Si    0.83152   0.45089   0.32029   0.00000  Uiso   1.00
Si43   Si    0.76293   0.30584   0.78633   0.00000  Uiso   1.00
Si44   Si    0.85458   0.51270   0.75202   0.00000  Uiso   1.00
Si45   Si    0.86686   0.67333   0.14296   0.00000  Uiso   1.00
Si46   Si    0.60587   0.79757   0.20006   0.00000  Uiso   1.00
Si47   Si    0.85675   0.79152   0.03753   0.00000  Uiso   1.00
Si48   Si    0.88041   0.60066   0.42175   0.00000  Uiso   1.00
Si49   Si    0.77501   0.96251   0.52654   0.00000  Uiso   1.00
Si50   Si    0.90046   0.91704   0.33160   0.00000  Uiso   1.00
Si51   Si    0.83921   0.66502   0.81709   0.00000  Uiso   1.00
C52    C     0.18023   0.03628   0.06323   0.00000  Uiso   1.00
C53    C     0.20631   0.89584   0.10576   0.00000  Uiso   1.00
C54    C     0.24850   0.28597   0.16419   0.00000  Uiso   1.00
C55    C     0.09873   0.10662   0.23935   0.00000  Uiso   1.00
C56    C     0.20110   0.28312   0.31537   0.00000  Uiso   1.00
C57    C    -0.03554   0.14067   0.83886   0.00000  Uiso   1.00
O58    O     0.09830   0.10296   0.87404   0.00000  Uiso   1.00
C59    C     0.14548   0.21422   0.75581   0.00000  Uiso   1.00
C60    C     0.09533   0.48348   0.27981   0.00000  Uiso   1.00
C61    C     0.04146   0.60058   0.21390   0.00000  Uiso   1.00
C62    C     0.97621   0.40609   0.15466   0.00000  Uiso   1.00
C63    C     0.06388   0.38859   0.43866   0.00000  Uiso   1.00
C64    C     0.08808   0.57087   0.42318   0.00000  Uiso   1.00
C65    C     0.15711   0.39751   0.98554   0.00000  Uiso   1.00
O66    O     0.14945   0.27588   0.88481   0.00000  Uiso   1.00
C67    C     0.12064   0.40862   0.83719   0.00000  Uiso   1.00
C68    C     0.31162   0.45637   0.87243   0.00000  Uiso   1.00
C69    C     0.07979   0.87048   0.29811   0.00000  Uiso   1.00
O70    O     0.07455   0.92370   0.17169   0.00000  Uiso   1.00
C71    C     0.14714   0.86414   0.46020   0.00000  Uiso   1.00
C72    C     0.95786   0.78161   0.54189   0.00000  Uiso   1.00
C73    C     0.09795   0.81276   0.91787   0.00000  Uiso   1.00
O74    O     0.03810   0.92915   0.90395   0.00000  Uiso   1.00
C75    C     0.09257   0.71678   0.56612   0.00000  Uiso   1.00
C76    C    -0.05448   0.93089   0.73529   0.00000  Uiso   1.00
C77    C     0.06550   0.85004   0.70479   0.00000  Uiso   1.00
O78    O     0.13021   1.00696   0.78796   0.00000  Uiso   1.00
C79    C     0.12323   1.03144   0.64397   0.00000  Uiso   1.00
O80    O     0.27550   0.06008   0.18418   0.00000  Uiso   1.00
O81    O     0.30164   0.20193   0.25419   0.00000  Uiso   1.00
C82    C     0.46355   0.09123   0.04850   0.00000  Uiso   1.00
C83    C     0.38708   0.93195   0.49525   0.00000  Uiso   1.00
O84    O     0.39073   0.12523   0.29239   0.00000  Uiso   1.00
O85    O     0.44123   0.05837   0.39187   0.00000  Uiso   1.00
O86    O     0.22583   0.07128   0.89874   0.00000  Uiso   1.00
O87    O     0.38977   0.15732   0.97153   0.00000  Uiso   1.00
C88    C     0.33462   0.26981   0.92067   0.00000  Uiso   1.00
C89    C     0.37166   0.06244   0.65376   0.00000  Uiso   1.00
O90    O     0.54205   0.08451   0.69674   0.00000  Uiso   1.00
O91    O     0.44955   0.23055   0.18521   0.00000  Uiso   1.00
O92    O     0.52433   0.27785   0.06385   0.00000  Uiso   1.00
O93    O     0.47473   0.37526   0.12026   0.00000  Uiso   1.00
C94    C     0.58259   0.56638   0.12985   0.00000  Uiso   1.00
C95    C     0.39180   0.46243   1.05072   0.00000  Uiso   1.00
C96    C     0.57016   0.46922   0.99442   0.00000  Uiso   1.00
C97    C     0.32894   0.26248   0.43980   0.00000  Uiso   1.00
O98    O     0.46602   0.21504   0.40489   0.00000  Uiso   1.00
C99    C     0.30665   0.10361   0.48845   0.00000  Uiso   1.00
C100   C     0.31915   0.39153   0.58488   0.00000  Uiso   1.00
C101   C     0.29525   0.52985   0.52994   0.00000  Uiso   1.00
C102   C     0.26941   0.50026   0.68225   0.00000  Uiso   1.00
C103   C     0.45734   0.39579   0.30216   0.00000  Uiso   1.00
C104   C     0.47909   0.29477   0.54157   0.00000  Uiso   1.00
C105   C     0.60334   0.45459   0.39999   0.00000  Uiso   1.00
C106   C     0.57533   0.59542   0.34090   0.00000  Uiso   1.00
O107   O     0.40240   0.18081   0.83934   0.00000  Uiso   1.00
O108   O     0.52183   0.21818   0.72511   0.00000  Uiso   1.00
C109   C     0.57166   0.35934   0.82595   0.00000  Uiso   1.00
O110   O     0.45194   0.58747   0.61085   0.00000  Uiso   1.00
C111   C     0.40731   0.27913   0.73069   0.00000  Uiso   1.00
C112   C     0.53138   0.53314   0.71213   0.00000  Uiso   1.00
C113   C     0.62394   0.59421   0.57346   0.00000  Uiso   1.00
C114   C     0.25648   0.64100   0.14249   0.00000  Uiso   1.00
C115   C     0.40716   0.84249   0.14613   0.00000  Uiso   1.00
C116   C     0.25632   0.77303   0.25862   0.00000  Uiso   1.00
C117   C     0.27924   0.64727  -0.12576   0.00000  Uiso   1.00
C118   C     0.29275   0.80498  -0.03106   0.00000  Uiso   1.00
C119   C     0.45922   0.79709   0.94934   0.00000  Uiso   1.00
O120   O     0.38216   0.72160   0.25117   0.00000  Uiso   1.00
C121   C     0.33269   0.53898   0.26057   0.00000  Uiso   1.00
C122   C     0.43937   0.68959   0.36971   0.00000  Uiso   1.00
C123   C     0.52210   0.95291   0.38830   0.00000  Uiso   1.00
C124   C     0.48113   0.72572   0.76226   0.00000  Uiso   1.00
O125   O     0.61266   0.71002   0.67261   0.00000  Uiso   1.00
C126   C     0.69450   0.83831   0.78161   0.00000  Uiso   1.00
C127   C     0.22894   0.77907   0.75944   0.00000  Uiso   1.00
O128   O     0.38571   0.83917   0.84427   0.00000  Uiso   1.00
O129   O     0.41965   0.90425   0.72289   0.00000  Uiso   1.00
C130   C     0.34848   0.96959   0.82269   0.00000  Uiso   1.00
C131   C     0.48265   0.78391   0.55584   0.00000  Uiso   1.00
O132   O     0.61357   0.85717   0.66744   0.00000  Uiso   1.00
O133   O     0.56178   0.95949   0.63405   0.00000  Uiso   1.00
C134   C     1.01950   0.09527   0.03380   0.00000  Uiso   1.00
C135   C     0.86977   0.01651   0.13860   0.00000  Uiso   1.00
C136   C     0.50730   0.04045   0.22482   0.00000  Uiso   1.00
C137   C     0.68011   0.23712   0.19260   0.00000  Uiso   1.00
O138   O     0.56942   0.18877   0.31468   0.00000  Uiso   1.00
C139   C     0.96755   0.15357   0.41502   0.00000  Uiso   1.00
O140   O     0.57194   0.09247   0.48983   0.00000  Uiso   1.00
O141   O     0.56439   0.18920   0.59497   0.00000  Uiso   1.00
C142   C     0.88529   0.23653   0.27140   0.00000  Uiso   1.00
O143   O     0.68577   0.13408   0.29510   0.00000  Uiso   1.00
O144   O     0.78747   0.08032   0.34764   0.00000  Uiso   1.00
C145   C     0.60405   0.00229   0.77644   0.00000  Uiso   1.00
C146   C     0.62902   0.10659   0.93442   0.00000  Uiso   1.00
C147   C     0.76632   0.30448   0.97234   0.00000  Uiso   1.00
O148   O     0.56572   0.22215   0.94823   0.00000  Uiso   1.00
C149   C     0.88107   0.31288   0.61469   0.00000  Uiso   1.00
O150   O     0.69933   0.16708   0.58590   0.00000  Uiso   1.00
C151   C     0.80827   0.14036   0.68470   0.00000  Uiso   1.00
O152   O     0.62344   0.39318   0.17031   0.00000  Uiso   1.00
O153   O     0.65345   0.51277   0.26642   0.00000  Uiso   1.00
C154   C     1.06772   0.62662   1.03346   0.00000  Uiso   1.00
C155   C     0.85247   0.47195   0.08805   0.00000  Uiso   1.00
C156   C     0.88095   0.56959   0.96908   0.00000  Uiso   1.00
O157   O     0.71033   0.27158   0.49299   0.00000  Uiso   1.00
O158   O     0.80450   0.23662   0.39680   0.00000  Uiso   1.00
O159   O     0.90262   0.39985   0.46873   0.00000  Uiso   1.00
O160   O     0.90732   0.44031   0.27805   0.00000  Uiso   1.00
O161   O     0.75825   0.44524   0.26509   0.00000  Uiso   1.00
O162   O     0.77700   0.36467   0.37501   0.00000  Uiso   1.00
O163   O     0.67720   0.24477   0.84025   0.00000  Uiso   1.00
O164   O     0.73921   0.25289   0.71448   0.00000  Uiso   1.00
C165   C     0.87357   0.32685   0.81775   0.00000  Uiso   1.00
C166   C     1.06861   0.50946   0.55529   0.00000  Uiso   1.00
C167   C     0.97708   0.53928   0.73985   0.00000  Uiso   1.00
C168   C     0.81088   0.50953   0.66457   0.00000  Uiso   1.00
O169   O     0.78223   0.40634   0.77890   0.00000  Uiso   1.00
O170   O     0.78488   0.56939   0.17294   0.00000  Uiso   1.00
O171   O     0.93986   0.66022   0.09705   0.00000  Uiso   1.00
O172   O     0.92600   0.74964   0.20478   0.00000  Uiso   1.00
C173   C     0.55971   0.79096   0.11258   0.00000  Uiso   1.00
C174   C     0.62862   0.90160   0.24617   0.00000  Uiso   1.00
C175   C     0.81934   0.97179  -0.01111   0.00000  Uiso   1.00
O176   O     0.52213   0.70820   0.23630   0.00000  Uiso   1.00
O177   O     0.93359   0.79113   0.98408   0.00000  Uiso   1.00
O178   O     0.82312   0.71336   0.09646   0.00000  Uiso   1.00
O179   O     0.89950   0.89307   0.06385   0.00000  Uiso   1.00
C180   C     0.73840   0.74756   0.99509   0.00000  Uiso   1.00
C181   C     0.80405   0.52003   0.49349   0.00000  Uiso   1.00
O182   O     0.88816   0.54934   0.35690   0.00000  Uiso   1.00
O183   O     0.98524   0.67092   0.44747   0.00000  Uiso   1.00
C184   C     0.77251   0.86005   0.54072   0.00000  Uiso   1.00
C185   C     0.88866   1.06382   0.56861   0.00000  Uiso   1.00
O186   O     0.78371   0.98346   0.44561   0.00000  Uiso   1.00
O187   O     0.67794   0.94755   0.55333   0.00000  Uiso   1.00
O188   O     0.93496   0.89436   0.26130   0.00000  Uiso   1.00
C189   C     0.71116   0.79104   0.18998   0.00000  Uiso   1.00
C190   C     0.78284   0.80716   0.35455   0.00000  Uiso   1.00
C191   C     0.83346   0.66735   0.39566   0.00000  Uiso   1.00
C192   C     0.99770   0.95851   0.39796   0.00000  Uiso   1.00
O193   O     0.87570   0.99121   0.33264   0.00000  Uiso   1.00
C194   C     0.73347   0.60950   0.87228   0.00000  Uiso   1.00
O195   O     0.86614   0.59142   0.79986   0.00000  Uiso   1.00
C196   C     0.80055   0.69274   0.74041   0.00000  Uiso   1.00
O197   O     0.92748   0.76095   0.85072   0.00000  Uiso   1.00
H198   H     0.13123  -0.01406   0.02150   0.00000  Uiso   1.00
H199   H     0.25766   0.07181   0.04155   0.00000  Uiso   1.00
H200   H     0.16873   0.09225   0.07741   0.00000  Uiso   1.00
H201   H     0.13413   0.82375   0.11017   0.00000  Uiso   1.00
H202   H     0.25506   0.89757   0.14248   0.00000  Uiso   1.00
H203   H     0.23712   0.90816   0.05162   0.00000  Uiso   1.00
H204   H     0.26043   0.26060   0.11853   0.00000  Uiso   1.00
H205   H     0.32112   0.35946   0.17885   0.00000  Uiso   1.00
H206   H     0.19699   0.30135   0.15245   0.00000  Uiso   1.00
H207   H     0.09843   0.06303   0.27688   0.00000  Uiso   1.00
H208   H     0.09129   0.07737   0.18722   0.00000  Uiso   1.00
H209   H     0.04310   0.11901   0.25302   0.00000  Uiso   1.00
H210   H     0.26235   0.35497   0.33283   0.00000  Uiso   1.00
H211   H     0.17491   0.24201   0.36348   0.00000  Uiso   1.00
H212   H     0.14142   0.28688   0.29985   0.00000  Uiso   1.00
H213   H    -0.04229   0.18169   0.88071   0.00000  Uiso   1.00
H214   H    -0.08807   0.06840   0.85439   0.00000  Uiso   1.00
H215   H    -0.05438   0.15261   0.78868   0.00000  Uiso   1.00
H216   H     0.21274   0.22489   0.75127   0.00000  Uiso   1.00
H217   H     0.15130   0.27879   0.73973   0.00000  Uiso   1.00
H218   H     0.09998   0.15815   0.71862   0.00000  Uiso   1.00
H219   H     0.15550   0.55412   0.29299   0.00000  Uiso   1.00
H220   H     0.11972   0.44383   0.24924   0.00000  Uiso   1.00
H221   H     0.05871   0.44608   0.32586   0.00000  Uiso   1.00
H222   H    -0.02069   0.59542   0.19906   0.00000  Uiso   1.00
H223   H     0.10251   0.62869   0.17562   0.00000  Uiso   1.00
H224   H     0.06410   0.64314   0.26310   0.00000  Uiso   1.00
H225   H     0.99778   0.36002   0.16803   0.00000  Uiso   1.00
H226   H     1.02148   0.44711   0.10999   0.00000  Uiso   1.00
H227   H     0.89774   0.36157   0.14557   0.00000  Uiso   1.00
H228   H     0.06611   0.35081   0.48255   0.00000  Uiso   1.00
H229   H     0.13023   0.42948   0.40811   0.00000  Uiso   1.00
H230   H     0.00669   0.33204   0.40799   0.00000  Uiso   1.00
H231   H     0.04192   0.55476   0.37837   0.00000  Uiso   1.00
H232   H     0.15640   0.57607   0.40456   0.00000  Uiso   1.00
H233   H     0.10722   0.63484   0.45448   0.00000  Uiso   1.00
H234   H     0.15465   0.34349   1.01049   0.00000  Uiso   1.00
H235   H     0.09132   0.39324   0.98898   0.00000  Uiso   1.00
H236   H     0.21989   0.46825   1.00727   0.00000  Uiso   1.00
H237   H     0.08027   0.42913   0.87358   0.00000  Uiso   1.00
H238   H     0.06003   0.34729   0.81053   0.00000  Uiso   1.00
H239   H     0.17284   0.47302   0.80286   0.00000  Uiso   1.00
H240   H     0.33822   0.53106   0.88434   0.00000  Uiso   1.00
H241   H     0.33222   0.45117   0.81818   0.00000  Uiso   1.00
H242   H     0.35360   0.44898   0.90759   0.00000  Uiso   1.00
H243   H     0.12194   0.84575   0.27416   0.00000  Uiso   1.00
H244   H     0.04279   0.82334   0.33883   0.00000  Uiso   1.00
H245   H     0.13577   0.93985   0.32277   0.00000  Uiso   1.00
H246   H     0.17918   0.84381   0.42051   0.00000  Uiso   1.00
H247   H     0.19386   0.91057   0.50110   0.00000  Uiso   1.00
H248   H     0.11444   0.89446   0.43152   0.00000  Uiso   1.00
H249   H     0.90046   0.72921   0.57975   0.00000  Uiso   1.00
H250   H     0.91786   0.79202   0.50338   0.00000  Uiso   1.00
H251   H     1.00399   0.85446   0.56798   0.00000  Uiso   1.00
H252   H     0.15529   0.86801   0.88143   0.00000  Uiso   1.00
H253   H     0.07483   0.73863   0.90243   0.00000  Uiso   1.00
H254   H     0.12769   0.83194   0.96946   0.00000  Uiso   1.00
H255   H     0.09306   0.75335   0.61116   0.00000  Uiso   1.00
H256   H     0.16476   0.73731   0.55432   0.00000  Uiso   1.00
H257   H     0.03911   0.63953   0.56956   0.00000  Uiso   1.00
H258   H    -0.08746   0.89010   0.78344   0.00000  Uiso   1.00
H259   H    -0.10970   0.89404   0.69516   0.00000  Uiso   1.00
H260   H    -0.03852   1.00061   0.74018   0.00000  Uiso   1.00
H261   H     0.05851   0.82190   0.75656   0.00000  Uiso   1.00
H262   H     0.14266   0.88210   0.68537   0.00000  Uiso   1.00
H263   H     0.00950   0.79277   0.67357   0.00000  Uiso   1.00
H264   H     0.17635   1.09955   0.65599   0.00000  Uiso   1.00
H265   H     0.06526   1.03154   0.62123   0.00000  Uiso   1.00
H266   H     0.15385   1.00869   0.60442   0.00000  Uiso   1.00
H267   H     0.52074   0.10420   0.08464   0.00000  Uiso   1.00
H268   H     0.45657   0.04381   0.00858   0.00000  Uiso   1.00
H269   H     0.39465   0.05124   0.07703   0.00000  Uiso   1.00
H270   H     0.34450   0.95617   0.51300   0.00000  Uiso   1.00
H271   H     0.41747   0.91903   0.53418   0.00000  Uiso   1.00
H272   H     0.34200   0.87228   0.46791   0.00000  Uiso   1.00
H273   H     0.32202   0.28566   0.87061   0.00000  Uiso   1.00
H274   H     0.40329   0.33099   0.93959   0.00000  Uiso   1.00
H275   H     0.27494   0.24749   0.95774   0.00000  Uiso   1.00
H276   H     0.34484   0.10567   0.63918   0.00000  Uiso   1.00
H277   H     0.33135   0.03366   0.69992   0.00000  Uiso   1.00
H278   H     0.35348   0.00848   0.61324   0.00000  Uiso   1.00
H279   H     0.64609   0.57165   0.13791   0.00000  Uiso   1.00
H280   H     0.54823   0.55557   0.17812   0.00000  Uiso   1.00
H281   H     0.59110   0.62657   0.10590   0.00000  Uiso   1.00
H282   H     0.42579   0.52451   1.02116   0.00000  Uiso   1.00
H283   H     0.36405   0.47636   1.09572   0.00000  Uiso   1.00
H284   H     0.34156   0.40574   1.02008   0.00000  Uiso   1.00
H285   H     0.54172   0.49581   0.95806   0.00000  Uiso   1.00
H286   H     0.55462   0.40243   0.98192   0.00000  Uiso   1.00
H287   H     0.64691   0.52298   1.00400   0.00000  Uiso   1.00
H288   H     0.37056   0.33710   0.43745   0.00000  Uiso   1.00
H289   H     0.26989   0.24353   0.48008   0.00000  Uiso   1.00
H290   H     0.30397   0.23076   0.38939   0.00000  Uiso   1.00
H291   H     0.33386   0.06578   0.51188   0.00000  Uiso   1.00
H292   H     0.26264   0.06627   0.44512   0.00000  Uiso   1.00
H293   H     0.25951   0.10893   0.52832   0.00000  Uiso   1.00
H294   H     0.35812   0.39484   0.53480   0.00000  Uiso   1.00
H295   H     0.24187   0.33192   0.58443   0.00000  Uiso   1.00
H296   H     0.34681   0.37943   0.62799   0.00000  Uiso   1.00
H297   H     0.32616   0.51905   0.48556   0.00000  Uiso   1.00
H298   H     0.31724   0.60270   0.54048   0.00000  Uiso   1.00
H299   H     0.21826   0.47895   0.53921   0.00000  Uiso   1.00
H300   H     0.32056   0.52186   0.72551   0.00000  Uiso   1.00
H301   H     0.19952   0.43271   0.68217   0.00000  Uiso   1.00
H302   H     0.26033   0.55920   0.68333   0.00000  Uiso   1.00
H303   H     0.44436   0.40675   0.24760   0.00000  Uiso   1.00
H304   H     0.40184   0.38631   0.34318   0.00000  Uiso   1.00
H305   H     0.46047   0.33630   0.30486   0.00000  Uiso   1.00
H306   H     0.55494   0.31873   0.54156   0.00000  Uiso   1.00
H307   H     0.43852   0.25003   0.58708   0.00000  Uiso   1.00
H308   H     0.48884   0.36202   0.54910   0.00000  Uiso   1.00
H309   H     0.63415   0.42156   0.38514   0.00000  Uiso   1.00
H310   H     0.53478   0.40600   0.43056   0.00000  Uiso   1.00
H311   H     0.64767   0.51246   0.43867   0.00000  Uiso   1.00
H312   H     0.59529   0.63562   0.29485   0.00000  Uiso   1.00
H313   H     0.61568   0.62733   0.39293   0.00000  Uiso   1.00
H314   H     0.49479   0.56474   0.35078   0.00000  Uiso   1.00
H315   H     0.62419   0.39670   0.78364   0.00000  Uiso   1.00
H316   H     0.60355   0.35194   0.87040   0.00000  Uiso   1.00
H317   H     0.53836   0.39708   0.84068   0.00000  Uiso   1.00
H318   H     0.34507   0.21729   0.70753   0.00000  Uiso   1.00
H319   H     0.45225   0.33247   0.69415   0.00000  Uiso   1.00
H320   H     0.37225   0.30524   0.76302   0.00000  Uiso   1.00
H321   H     0.45699   0.48737   0.72736   0.00000  Uiso   1.00
H322   H     0.56475   0.57872   0.75402   0.00000  Uiso   1.00
H323   H     0.56204   0.49162   0.70446   0.00000  Uiso   1.00
H324   H     0.70050   0.63069   0.58498   0.00000  Uiso   1.00
H325   H     0.61621   0.62262   0.52832   0.00000  Uiso   1.00
H326   H     0.58641   0.51802   0.56195   0.00000  Uiso   1.00
H327   H     0.19839   0.57471   0.16658   0.00000  Uiso   1.00
H328   H     0.30934   0.63256   0.11699   0.00000  Uiso   1.00
H329   H     0.23588   0.66934   0.10438   0.00000  Uiso   1.00
H330   H     0.41843   0.82680   0.09517   0.00000  Uiso   1.00
H331   H     0.47989   0.88070   0.17034   0.00000  Uiso   1.00
H332   H     0.37308   0.88101   0.14903   0.00000  Uiso   1.00
H333   H     0.20573   0.71402   0.29150   0.00000  Uiso   1.00
H334   H     0.21696   0.79564   0.23017   0.00000  Uiso   1.00
H335   H     0.30225   0.83265   0.29622   0.00000  Uiso   1.00
H336   H     0.24743   0.60336  -0.07957   0.00000  Uiso   1.00
H337   H     0.31826   0.63011  -0.16574   0.00000  Uiso   1.00
H338   H     0.21963   0.64318  -0.15281   0.00000  Uiso   1.00
H339   H     0.27227   0.76204   0.01627   0.00000  Uiso   1.00
H340   H     0.22950   0.79263  -0.05745   0.00000  Uiso   1.00
H341   H     0.34157   0.88067  -0.01959   0.00000  Uiso   1.00
H342   H     0.43935   0.75609   0.99761   0.00000  Uiso   1.00
H343   H     0.50490   0.87278   0.96465   0.00000  Uiso   1.00
H344   H     0.49026   0.76848   0.91828   0.00000  Uiso   1.00
H345   H     0.26897   0.51086   0.29422   0.00000  Uiso   1.00
H346   H     0.36848   0.50302   0.26793   0.00000  Uiso   1.00
H347   H     0.32039   0.53410   0.20611   0.00000  Uiso   1.00
H348   H     0.47560   0.66253   0.39451   0.00000  Uiso   1.00
H349   H     0.37275   0.67969   0.39131   0.00000  Uiso   1.00
H350   H     0.49725   0.76391   0.37577   0.00000  Uiso   1.00
H351   H     0.45495   0.89297   0.36182   0.00000  Uiso   1.00
H352   H     0.54069   0.91764   0.42196   0.00000  Uiso   1.00
H353   H     0.58382   1.00375   0.35662   0.00000  Uiso   1.00
H354   H     0.42170   0.68649   0.72084   0.00000  Uiso   1.00
H355   H     0.48199   0.78675   0.77784   0.00000  Uiso   1.00
H356   H     0.47589   0.68664   0.80444   0.00000  Uiso   1.00
H357   H     0.76494   0.88394   0.76089   0.00000  Uiso   1.00
H358   H     0.69429   0.79223   0.81589   0.00000  Uiso   1.00
H359   H     0.67449   0.87347   0.81839   0.00000  Uiso   1.00
H360   H     0.17523   0.76745   0.79931   0.00000  Uiso   1.00
H361   H     0.22630   0.71659   0.74834   0.00000  Uiso   1.00
H362   H     0.20865   0.78734   0.70964   0.00000  Uiso   1.00
H363   H     0.33392   0.96793   0.88074   0.00000  Uiso   1.00
H364   H     0.28535   0.96607   0.79950   0.00000  Uiso   1.00
H365   H     0.42141   1.03698   0.81408   0.00000  Uiso   1.00
H366   H     0.49239   0.72804   0.56313   0.00000  Uiso   1.00
H367   H     0.48586   0.78736   0.50008   0.00000  Uiso   1.00
H368   H     0.41269   0.77002   0.57376   0.00000  Uiso   1.00
H369   H     1.06355   0.07678   0.00350   0.00000  Uiso   1.00
H370   H     1.06875   0.14615   0.07604   0.00000  Uiso   1.00
H371   H     0.99839   0.13698   0.00496   0.00000  Uiso   1.00
H372   H     0.88089   0.08494   0.13211   0.00000  Uiso   1.00
H373   H     0.91651   0.01314   0.17609   0.00000  Uiso   1.00
H374   H     0.79134  -0.03773   0.14888   0.00000  Uiso   1.00
H375   H     0.46056   0.06010   0.20651   0.00000  Uiso   1.00
H376   H     0.47091  -0.01909   0.26150   0.00000  Uiso   1.00
H377   H     0.53644   0.02448   0.17855   0.00000  Uiso   1.00
H378   H     0.75214   0.29493   0.21400   0.00000  Uiso   1.00
H379   H     0.63614   0.25908   0.17741   0.00000  Uiso   1.00
H380   H     0.69744   0.20919   0.14690   0.00000  Uiso   1.00
H381   H     0.95464   0.18383   0.45765   0.00000  Uiso   1.00
H382   H     0.99187   0.20242   0.37443   0.00000  Uiso   1.00
H383   H     1.02662   0.14322   0.42130   0.00000  Uiso   1.00
H384   H     0.88565   0.20085   0.22311   0.00000  Uiso   1.00
H385   H     0.95954   0.27118   0.28993   0.00000  Uiso   1.00
H386   H     0.87783   0.28801   0.25121   0.00000  Uiso   1.00
H387   H     0.64990   0.07756   0.79061   0.00000  Uiso   1.00
H388   H     0.65277  -0.01641   0.75421   0.00000  Uiso   1.00
H389   H     0.56936  -0.03540   0.82247   0.00000  Uiso   1.00
H390   H     0.63896   0.09340   0.98715   0.00000  Uiso   1.00
H391   H     0.66834   0.09132   0.90069   0.00000  Uiso   1.00
H392   H     0.55304   0.05285   0.91738   0.00000  Uiso   1.00
H393   H     0.74839   0.29031   1.02675   0.00000  Uiso   1.00
H394   H     0.78728   0.37745   0.96772   0.00000  Uiso   1.00
H395   H     0.82640   0.30419   0.95592   0.00000  Uiso   1.00
H396   H     0.94928   0.35931   0.64631   0.00000  Uiso   1.00
H397   H     0.85633   0.35284   0.59627   0.00000  Uiso   1.00
H398   H     0.89734   0.28717   0.56555   0.00000  Uiso   1.00
H399   H     0.87936   0.16478   0.66545   0.00000  Uiso   1.00
H400   H     0.76232   0.06705   0.67288   0.00000  Uiso   1.00
H401   H     0.80911   0.14936   0.74028   0.00000  Uiso   1.00
H402   H     1.12210   0.68641   1.06784   0.00000  Uiso   1.00
H403   H     1.08857   0.64595   0.97865   0.00000  Uiso   1.00
H404   H     1.07494   0.57086   1.04306   0.00000  Uiso   1.00
H405   H     0.87217   0.42947   0.06079   0.00000  Uiso   1.00
H406   H     0.77538   0.43834   0.07705   0.00000  Uiso   1.00
H407   H     0.86607   0.47288   0.14098   0.00000  Uiso   1.00
H408   H     0.80196   0.53946   0.97090   0.00000  Uiso   1.00
H409   H     0.89383   0.52564   0.92946   0.00000  Uiso   1.00
H410   H     0.91999   0.63991   0.94354   0.00000  Uiso   1.00
H411   H     0.92527   0.35553   0.77043   0.00000  Uiso   1.00
H412   H     0.86703   0.26070   0.82756   0.00000  Uiso   1.00
H413   H     0.90293   0.37226   0.86242   0.00000  Uiso   1.00
H414   H     1.01447   0.50838   0.58822   0.00000  Uiso   1.00
H415   H     1.14373   0.58027   0.55985   0.00000  Uiso   1.00
H416   H     1.07120   0.45676   0.57871   0.00000  Uiso   1.00
H417   H     0.97208   0.47878   0.72343   0.00000  Uiso   1.00
H418   H     1.01826   0.56966   0.78720   0.00000  Uiso   1.00
H419   H     1.01660   0.59303   0.70060   0.00000  Uiso   1.00
H420   H     0.83735   0.48725   0.62524   0.00000  Uiso   1.00
H421   H     0.83384   0.57962   0.65286   0.00000  Uiso   1.00
H422   H     0.73233   0.45751   0.66891   0.00000  Uiso   1.00
H423   H     0.47912   0.74313   0.11465   0.00000  Uiso   1.00
H424   H     0.58626   0.76547   0.07587   0.00000  Uiso   1.00
H425   H     0.58413   0.86249   0.09485   0.00000  Uiso   1.00
H426   H     0.67584   0.91255   0.28741   0.00000  Uiso   1.00
H427   H     0.55454   0.88938   0.26241   0.00000  Uiso   1.00
H428   H     0.67446   0.96080   0.21369   0.00000  Uiso   1.00
H429   H     0.74848   0.93481   0.01142   0.00000  Uiso   1.00
H430   H     0.82422   0.93026  -0.05587   0.00000  Uiso   1.00
H431   H     0.83752   1.03607  -0.03238   0.00000  Uiso   1.00
H432   H     0.68145   0.66761   0.99141   0.00000  Uiso   1.00
H433   H     0.75989   0.78173   0.94353   0.00000  Uiso   1.00
H434   H     0.70751   0.77809   1.01855   0.00000  Uiso   1.00
H435   H     0.84061   0.49310   0.51134   0.00000  Uiso   1.00
H436   H     0.72701   0.46141   0.47650   0.00000  Uiso   1.00
H437   H     0.80006   0.56484   0.52996   0.00000  Uiso   1.00
H438   H     0.71811   0.80605   0.51204   0.00000  Uiso   1.00
H439   H     0.74614   0.84126   0.59283   0.00000  Uiso   1.00
H440   H     0.84211   0.87447   0.53118   0.00000  Uiso   1.00
H441   H     0.88278   1.12140   0.56492   0.00000  Uiso   1.00
H442   H     0.95670   1.08353   0.54479   0.00000  Uiso   1.00
H443   H     0.88719   1.04641   0.62187   0.00000  Uiso   1.00
H444   H     0.73059   0.79495   0.13620   0.00000  Uiso   1.00
H445   H     0.70440   0.73152   0.21218   0.00000  Uiso   1.00
H446   H     0.76533   0.85506   0.21625   0.00000  Uiso   1.00
H447   H     0.77031   0.75104   0.31887   0.00000  Uiso   1.00
H448   H     0.72666   0.81864   0.34445   0.00000  Uiso   1.00
H449   H     0.78943   0.80155   0.40658   0.00000  Uiso   1.00
H450   H     0.78932   0.67360   0.43591   0.00000  Uiso   1.00
H451   H     0.78522   0.62989   0.35224   0.00000  Uiso   1.00
H452   H     0.89404   0.73527   0.37867   0.00000  Uiso   1.00
H453   H     0.99020   0.89767   0.42117   0.00000  Uiso   1.00
H454   H     0.99169   0.99535   0.44175   0.00000  Uiso   1.00
H455   H     1.07698   1.01100   0.37795   0.00000  Uiso   1.00
H456   H     0.68719   0.54155   0.85111   0.00000  Uiso   1.00
H457   H     0.69456   0.64391   0.86886   0.00000  Uiso   1.00
H458   H     0.75063   0.61158   0.92831   0.00000  Uiso   1.00
H459   H     0.85344   0.72700   0.69770   0.00000  Uiso   1.00
H460   H     0.77691   0.73816   0.75861   0.00000  Uiso   1.00
H461   H     0.73523   0.61935   0.72310   0.00000  Uiso   1.00
loop_
_geom_bond_atom_site_label_1
_geom_bond_atom_site_label_2
_geom_bond_distance
_geom_bond_site_symmetry_2
_ccdc_geom_bond_type
Si1    C52     1.831   .     S
Si1    O80     1.634   .     S
Si1    C53     1.848   1_545 S
Si1    O70     1.615   1_545 S
Si2    C54     1.911   .     S
Si2    C55     1.819   .     S
Si2    C56     1.925   .     S
Si2    O81     1.575   .     S
Si3    O58     1.607   .     S
Si3    O86     1.596   .     S
Si3    O74     1.656   1_545 S
Si3    O78     1.583   1_545 S
Si4    C57     1.854   .     S
Si4    O58     1.612   .     S
Si4    C59     1.842   .     S
Si4    O66     1.555   .     S
Si5    C60     1.854   .     S
Si5    C61     1.845   .     S
Si5    C62     1.893   1_455 S
Si5    O160    1.554   1_455 S
Si6    C63     1.872   .     S
Si6    C64     1.885   .     S
Si6    O159    1.584   1_455 S
Si6    C166    1.866   1_455 S
Si7    C65     1.847   .     S
Si7    O66     1.615   .     S
Si7    C67     1.855   .     S
Si7    C68     1.815   .     S
Si8    C69     1.849   .     S
Si8    O70     1.608   .     S
Si8    O172    1.649   1_455 S
Si8    O188    1.631   1_455 S
Si9    C71     1.890   .     S
Si9    C75     1.882   .     S
Si9    C72     1.896   1_455 S
Si9    O183    1.604   1_455 S
Si10   C73     1.868   .     S
Si10   O74     1.599   .     S
Si10   O177    1.604   1_455 S
Si10   O197    1.590   1_455 S
Si11   C76     1.871   .     S
Si11   C77     1.846   .     S
Si11   O78     1.591   .     S
Si11   C79     1.903   .     S
Si12   O80     1.660   .     S
Si12   O81     1.559   .     S
Si12   O84     1.672   .     S
Si12   O91     1.609   .     S
Si13   C82     1.863   .     S
Si13   O92     1.632   .     S
Si13   O87     1.534   1_554 S
Si13   O148    1.592   1_554 S
Si14   O85     1.630   .     S
Si14   O140    1.608   .     S
Si14   C83     1.802   1_545 S
Si14   C123    1.886   1_545 S
Si15   O84     1.608   .     S
Si15   O85     1.619   .     S
Si15   O98     1.550   .     S
Si15   O138    1.619   .     S
Si16   O90     1.608   .     S
Si16   C145    1.850   .     S
Si16   O129    1.611   1_545 S
Si16   O133    1.618   1_545 S
Si17   O86     1.679   .     S
Si17   O87     1.639   .     S
Si17   C88     1.870   .     S
Si17   O107    1.590   .     S
Si18   C89     1.918   .     S
Si18   O90     1.571   .     S
Si18   O108    1.613   .     S
Si18   O141    1.650   .     S
Si19   O91     1.591   .     S
Si19   O92     1.609   .     S
Si19   O93     1.596   .     S
Si19   O152    1.643   .     S
Si20   O93     1.575   .     S
Si20   C94     1.934   .     S
Si20   C95     1.918   1_554 S
Si20   C96     1.898   1_554 S
Si21   C97     1.891   .     S
Si21   O98     1.603   .     S
Si21   C99     1.815   .     S
Si21   C104    1.889   .     S
Si22   C100    1.849   .     S
Si22   C101    1.799   .     S
Si22   C102    1.931   .     S
Si22   O110    1.587   .     S
Si23   C103    1.797   .     S
Si23   C105    1.829   .     S
Si23   C106    1.834   .     S
Si23   O153    1.581   .     S
Si24   O107    1.606   .     S
Si24   O108    1.641   .     S
Si24   C109    1.834   .     S
Si24   C111    1.819   .     S
Si25   O110    1.637   .     S
Si25   C112    1.875   .     S
Si25   C113    1.857   .     S
Si25   O125    1.573   .     S
Si26   C114    1.905   .     S
Si26   C115    1.826   .     S
Si26   C116    1.845   .     S
Si26   O120    1.588   .     S
Si27   C117    1.858   .     S
Si27   C118    1.849   .     S
Si27   C119    1.845   1_554 S
Si27   O128    1.593   1_554 S
Si28   O120    1.621   .     S
Si28   C121    1.821   .     S
Si28   C122    1.873   .     S
Si28   O176    1.580   .     S
Si29   C124    1.918   .     S
Si29   O125    1.607   .     S
Si29   C126    1.826   .     S
Si29   O132    1.544   .     S
Si30   C127    1.796   .     S
Si30   O128    1.630   .     S
Si30   O129    1.560   .     S
Si30   C130    1.824   .     S
Si31   C131    1.892   .     S
Si31   O132    1.629   .     S
Si31   O133    1.587   .     S
Si31   O187    1.586   .     S
Si32   C134    1.862   .     S
Si32   C135    1.831   .     S
Si32   C175    1.852   1_545 S
Si32   O179    1.643   1_545 S
Si33   C136    1.846   .     S
Si33   C137    1.829   .     S
Si33   O138    1.612   .     S
Si33   O143    1.625   .     S
Si34   C139    1.854   .     S
Si34   O144    1.630   .     S
Si34   O186    1.624   1_545 S
Si34   O193    1.631   1_545 S
Si35   O140    1.598   .     S
Si35   O141    1.635   .     S
Si35   O150    1.577   .     S
Si35   O157    1.654   .     S
Si36   C142    1.816   .     S
Si36   O143    1.618   .     S
Si36   O144    1.652   .     S
Si36   O158    1.595   .     S
Si37   C146    1.838   .     S
Si37   C147    1.892   .     S
Si37   O148    1.602   .     S
Si37   O163    1.608   .     S
Si38   C149    1.810   .     S
Si38   O150    1.630   .     S
Si38   C151    1.879   .     S
Si38   O164    1.631   .     S
Si39   O152    1.639   .     S
Si39   O153    1.584   .     S
Si39   O161    1.637   .     S
Si39   O170    1.646   .     S
Si40   C155    1.813   .     S
Si40   O171    1.563   .     S
Si40   C154    1.873   1_554 S
Si40   C156    1.858   1_554 S
Si41   O157    1.646   .     S
Si41   O158    1.655   .     S
Si41   O159    1.666   .     S
Si41   O162    1.601   .     S
Si42   O160    1.607   .     S
Si42   O161    1.634   .     S
Si42   O162    1.655   .     S
Si42   O182    1.569   .     S
Si43   O163    1.597   .     S
Si43   O164    1.593   .     S
Si43   C165    1.813   .     S
Si43   O169    1.617   .     S
Si44   C167    1.852   .     S
Si44   C168    1.883   .     S
Si44   O169    1.626   .     S
Si44   O195    1.567   .     S
Si45   O170    1.639   .     S
Si45   O171    1.629   .     S
Si45   O172    1.637   .     S
Si45   O178    1.610   .     S
Si46   C173    1.887   .     S
Si46   C174    1.849   .     S
Si46   O176    1.552   .     S
Si46   C189    1.860   .     S
Si47   O178    1.651   .     S
Si47   O179    1.563   .     S
Si47   O177    1.652   1_554 S
Si47   C180    1.889   1_554 S
Si48   C181    1.889   .     S
Si48   O182    1.586   .     S
Si48   O183    1.545   .     S
Si48   C191    1.858   .     S
Si49   C184    1.816   .     S
Si49   C185    1.887   .     S
Si49   O186    1.632   .     S
Si49   O187    1.583   .     S
Si50   O188    1.613   .     S
Si50   C190    1.850   .     S
Si50   C192    1.903   .     S
Si50   O193    1.592   .     S
Si51   C194    1.803   .     S
Si51   O195    1.633   .     S
Si51   C196    1.855   .     S
Si51   O197    1.601   .     S
C52    H198    1.132   .     S
C52    H199    1.149   .     S
C52    H200    1.138   .     S
C53    H201    1.141   .     S
C53    H202    1.102   .     S
C53    H203    1.142   .     S
C53    Si1     1.848   1_565 S
C54    H204    1.056   .     S
C54    H205    1.187   .     S
C54    H206    1.089   .     S
C55    H207    1.084   .     S
C55    H208    1.109   .     S
C55    H209    1.110   .     S
C56    H210    1.120   .     S
C56    H211    1.125   .     S
C56    H212    1.106   .     S
C57    H213    1.125   .     S
C57    H214    1.093   .     S
C57    H215    1.112   .     S
C59    H216    1.043   .     S
C59    H217    1.141   .     S
C59    H218    1.096   .     S
C60    H219    1.081   .     S
C60    H220    1.148   .     S
C60    H221    1.082   .     S
C61    H222    1.054   .     S
C61    H223    1.123   .     S
C61    H224    1.133   .     S
C62    H225    1.111   .     S
C62    H226    1.113   .     S
C62    H227    1.096   .     S
C62    Si5     1.893   1_655 S
C63    H228    1.125   .     S
C63    H229    1.089   .     S
C63    H230    1.078   .     S
C64    H231    1.113   .     S
C64    H232    1.156   .     S
C64    H233    1.138   .     S
C65    H234    1.067   .     S
C65    H235    1.074   .     S
C65    H236    1.145   .     S
C67    H237    1.164   .     S
C67    H238    1.093   .     S
C67    H239    1.171   .     S
C68    H240    1.134   .     S
C68    H241    1.131   .     S
C68    H242    1.073   .     S
C69    H243    1.120   .     S
C69    H244    1.065   .     S
C69    H245    1.124   .     S
O70    Si1     1.615   1_565 S
C71    H246    1.103   .     S
C71    H247    1.087   .     S
C71    H248    1.141   .     S
C72    H249    1.144   .     S
C72    H250    1.122   .     S
C72    H251    1.153   .     S
C72    Si9     1.896   1_655 S
C73    H252    1.143   .     S
C73    H253    1.156   .     S
C73    H254    1.100   .     S
O74    Si3     1.656   1_565 S
C75    H255    1.076   .     S
C75    H256    1.074   .     S
C75    H257    1.114   .     S
C76    H258    1.129   .     S
C76    H259    1.105   .     S
C76    H260    1.096   .     S
C77    H261    1.123   .     S
C77    H262    1.138   .     S
C77    H263    1.082   .     S
O78    Si3     1.583   1_565 S
C79    H264    1.019   .     S
C79    H265    1.095   .     S
C79    H266    1.111   .     S
C82    H267    1.128   .     S
C82    H268    1.084   .     S
C82    H269    1.096   .     S
C83    H270    1.078   .     S
C83    H271    1.040   .     S
C83    H272    1.013   .     S
C83    Si14    1.802   1_565 S
O87    Si13    1.534   1_556 S
C88    H273    1.095   .     S
C88    H274    1.090   .     S
C88    H275    1.104   .     S
C89    H276    1.141   .     S
C89    H277    1.067   .     S
C89    H278    1.121   .     S
C94    H279    1.043   .     S
C94    H280    1.062   .     S
C94    H281    1.107   .     S
C95    H282    1.076   .     S
C95    H283    1.077   .     S
C95    H284    1.041   .     S
C95    Si20    1.918   1_556 S
C96    H285    1.130   .     S
C96    H286    1.068   .     S
C96    H287    1.090   .     S
C96    Si20    1.898   1_556 S
C97    H288    1.072   .     S
C97    H289    1.149   .     S
C97    H290    1.090   .     S
C99    H291    1.126   .     S
C99    H292    1.070   .     S
C99    H293    1.143   .     S
C100   H294    1.153   .     S
C100   H295    1.100   .     S
C100   H296    1.069   .     S
C101   H297    1.073   .     S
C101   H298    1.123   .     S
C101   H299    1.081   .     S
C102   H300    1.123   .     S
C102   H301    1.083   .     S
C102   H302    1.137   .     S
C103   H303    1.149   .     S
C103   H304    1.159   .     S
C103   H305    1.086   .     S
C104   H306    1.094   .     S
C104   H307    1.129   .     S
C104   H308    1.104   .     S
C105   H309    1.017   .     S
C105   H310    1.129   .     S
C105   H311    1.127   .     S
C106   H312    1.089   .     S
C106   H313    1.178   .     S
C106   H314    1.150   .     S
C109   H315    1.108   .     S
C109   H316    1.094   .     S
C109   H317    1.124   .     S
C111   H318    1.077   .     S
C111   H319    1.076   .     S
C111   H320    1.117   .     S
C112   H321    1.065   .     S
C112   H322    1.048   .     S
C112   H323    1.125   .     S
C113   H324    1.087   .     S
C113   H325    1.084   .     S
C113   H326    1.118   .     S
C114   H327    1.107   .     S
C114   H328    1.096   .     S
C114   H329    1.088   .     S
C115   H330    1.073   .     S
C115   H331    1.116   .     S
C115   H332    1.121   .     S
C116   H333    1.099   .     S
C116   H334    1.128   .     S
C116   H335    1.133   .     S
C117   H336    1.118   .     S
C117   H337    1.155   .     S
C117   H338    1.122   .     S
C118   H339    1.134   .     S
C118   H340    1.106   .     S
C118   H341    1.103   .     S
C119   H342    1.133   .     S
C119   H343    1.118   .     S
C119   H344    1.084   .     S
C119   Si27    1.845   1_556 S
C121   H345    1.097   .     S
C121   H346    1.121   .     S
C121   H347    1.090   .     S
C122   H348    1.107   .     S
C122   H349    1.110   .     S
C122   H350    1.090   .     S
C123   H351    1.130   .     S
C123   H352    1.095   .     S
C123   H353    1.090   .     S
C123   Si14    1.886   1_565 S
C124   H354    1.164   .     S
C124   H355    1.102   .     S
C124   H356    1.067   .     S
C126   H357    1.053   .     S
C126   H358    1.074   .     S
C126   H359    1.106   .     S
C127   H360    1.111   .     S
C127   H361    1.092   .     S
C127   H362    1.092   .     S
O128   Si27    1.593   1_556 S
O129   Si16    1.611   1_565 S
C130   H363    1.160   .     S
C130   H364    1.145   .     S
C130   H365    1.119   .     S
C131   H366    1.106   .     S
C131   H367    1.100   .     S
C131   H368    1.110   .     S
O133   Si16    1.618   1_565 S
C134   H369    1.125   .     S
C134   H370    1.144   .     S
C134   H371    1.160   .     S
C135   H372    1.120   .     S
C135   H373    1.128   .     S
C135   H374    1.110   .     S
C136   H375    1.109   .     S
C136   H376    1.129   .     S
C136   H377    1.127   .     S
C137   H378    1.120   .     S
C137   H379    1.076   .     S
C137   H380    1.123   .     S
C139   H381    1.064   .     S
C139   H382    1.079   .     S
C139   H383    1.130   .     S
C142   H384    1.124   .     S
C142   H385    1.098   .     S
C142   H386    1.079   .     S
C145   H387    1.107   .     S
C145   H388    1.127   .     S
C145   H389    1.078   .     S
C146   H390    1.111   .     S
C146   H391    1.062   .     S
C146   H392    1.117   .     S
C147   H393    1.101   .     S
C147   H394    1.125   .     S
C147   H395    1.062   .     S
O148   Si13    1.592   1_556 S
C149   H396    1.139   .     S
C149   H397    1.087   .     S
C149   H398    1.147   .     S
C151   H399    1.076   .     S
C151   H400    1.070   .     S
C151   H401    1.100   .     S
C154   H402    1.128   .     S
C154   H403    1.126   .     S
C154   H404    1.085   .     S
C154   Si40    1.873   1_556 S
C155   H405    1.103   .     S
C155   H406    1.100   .     S
C155   H407    1.072   .     S
C156   H408    1.115   .     S
C156   H409    1.185   .     S
C156   H410    1.137   .     S
C156   Si40    1.858   1_556 S
O159   Si6     1.584   1_655 S
O160   Si5     1.554   1_655 S
C165   H411    1.164   .     S
C165   H412    1.130   .     S
C165   H413    1.084   .     S
C166   H414    1.099   .     S
C166   H415    1.153   .     S
C166   H416    1.077   .     S
C166   Si6     1.866   1_655 S
C167   H417    1.060   .     S
C167   H418    1.101   .     S
C167   H419    1.105   .     S
C168   H420    1.058   .     S
C168   H421    1.089   .     S
C168   H422    1.092   .     S
O172   Si8     1.649   1_655 S
C173   H423    1.109   .     S
C173   H424    1.059   .     S
C173   H425    1.139   .     S
C174   H426    1.090   .     S
C174   H427    1.179   .     S
C174   H428    1.082   .     S
C175   H429    1.066   .     S
C175   H430    1.158   .     S
C175   H431    1.084   .     S
C175   Si32    1.852   1_565 S
O177   Si10    1.604   1_655 S
O177   Si47    1.652   1_556 S
O179   Si32    1.643   1_565 S
C180   H432    1.154   .     S
C180   H433    1.136   .     S
C180   H434    1.038   .     S
C180   Si47    1.889   1_556 S
C181   H435    1.052   .     S
C181   H436    1.145   .     S
C181   H437    1.079   .     S
O183   Si9     1.604   1_655 S
C184   H438    1.022   .     S
C184   H439    1.088   .     S
C184   H440    1.064   .     S
C185   H441    1.083   .     S
C185   H442    1.086   .     S
C185   H443    1.099   .     S
O186   Si34    1.624   1_565 S
O188   Si8     1.631   1_655 S
C189   H444    1.092   .     S
C189   H445    1.094   .     S
C189   H446    1.078   .     S
C190   H447    1.111   .     S
C190   H448    1.109   .     S
C190   H449    1.049   .     S
C191   H450    1.120   .     S
C191   H451    1.099   .     S
C191   H452    1.082   .     S
C192   H453    1.118   .     S
C192   H454    1.100   .     S
C192   H455    1.164   .     S
O193   Si34    1.631   1_565 S
C194   H456    1.054   .     S
C194   H457    1.134   .     S
C194   H458    1.144   .     S
C196   H459    1.109   .     S
C196   H460    1.131   .     S
C196   H461    1.155   .     S
O197   Si10    1.590   1_655 S
