data_333-9-11-16-15-30-20
_audit_creation_date              2025-03-07
_audit_creation_method            'Materials Studio'
_symmetry_space_group_name_H-M    'P1'
_symmetry_Int_Tables_number       1
_symmetry_cell_setting            triclinic
loop_
_symmetry_equiv_pos_as_xyz
  x,y,z
_cell_length_a                    15.6833
_cell_length_b                    15.7384
_cell_length_c                    20.9068
_cell_angle_alpha                 90.4176
_cell_angle_beta                  103.0356
_cell_angle_gamma                 109.5739
loop_
_atom_site_label
_atom_site_type_symbol
_atom_site_fract_x
_atom_site_fract_y
_atom_site_fract_z
_atom_site_U_iso_or_equiv
_atom_site_adp_type
_atom_site_occupancy
Si1    Si   -0.07358  -0.23601   0.08973   0.00000  Uiso   1.00
Si2    Si   -0.13406   0.04574   0.18104   0.00000  Uiso   1.00
Si3    Si    0.26296   0.24493  -0.02719   0.00000  Uiso   1.00
Si4    Si    0.04879  -0.10650   0.38989   0.00000  Uiso   1.00
Si5    Si   -0.04031   0.02741   0.31960   0.00000  Uiso   1.00
Si6    Si    0.05822   0.14177   0.93157   0.00000  Uiso   1.00
Si7    Si    0.23407   0.26250   0.72629   0.00000  Uiso   1.00
Si8    Si    0.24994   0.55555   0.07746   0.00000  Uiso   1.00
Si9    Si    0.39360   0.83683   0.03113   0.00000  Uiso   1.00
Si10   Si   -0.12475   0.11313   0.40909   0.00000  Uiso   1.00
Si11   Si    0.05398   0.47032   0.60393   0.00000  Uiso   1.00
Si12   Si    0.30711   0.46185   0.76204   0.00000  Uiso   1.00
Si13   Si    0.27252   0.59631   0.65683   0.00000  Uiso   1.00
Si14   Si    0.26736   0.74748   0.12478   0.00000  Uiso   1.00
Si15   Si   -0.01527   0.59392   0.27110   0.00000  Uiso   1.00
Si16   Si    0.07925   0.72948   0.03609   0.00000  Uiso   1.00
Si17   Si    0.22656   0.72785   0.46049   0.00000  Uiso   1.00
Si18   Si   -0.06207   0.83334   0.49400   0.00000  Uiso   1.00
Si19   Si    0.14454   0.77756   0.32788   0.00000  Uiso   1.00
Si20   Si    0.20271   0.71795   0.72706   0.00000  Uiso   1.00
Si21   Si   -0.02554   0.57911   0.92928   0.00000  Uiso   1.00
Si22   Si    0.31303   0.02780   0.19622   0.00000  Uiso   1.00
Si23   Si    0.65769   0.32176  -0.06024   0.00000  Uiso   1.00
Si24   Si    0.50908  -0.00656   0.48516   0.00000  Uiso   1.00
Si25   Si    0.49632   0.16665   0.40783   0.00000  Uiso   1.00
Si26   Si    0.47248   0.15445   0.61739   0.00000  Uiso   1.00
Si27   Si    0.27235   0.41581   0.31430   0.00000  Uiso   1.00
Si28   Si    0.54963   0.36730   0.47583   0.00000  Uiso   1.00
Si29   Si    0.39076   0.56677   0.55781   0.00000  Uiso   1.00
Si30   Si    0.48752   0.49028   0.37491   0.00000  Uiso   1.00
Si31   Si    0.54475   0.34386   0.68386   0.00000  Uiso   1.00
Si32   Si    0.56823   0.53532   0.64547   0.00000  Uiso   1.00
Si33   Si    0.30360   0.85742   0.26212   0.00000  Uiso   1.00
Si34   Si    0.48422   0.66993   0.45105   0.00000  Uiso   1.00
Si35   Si    0.39445   0.85268   0.56591   0.00000  Uiso   1.00
Si36   Si    0.47065   0.84035   0.37600   0.00000  Uiso   1.00
Si37   Si    0.53702   0.78845   0.81224   0.00000  Uiso   1.00
Si38   Si    0.26283   0.91258   0.78645   0.00000  Uiso   1.00
Si39   Si    0.55040   0.83339   0.67386   0.00000  Uiso   1.00
Si40   Si    0.65614   0.14029   0.58539   0.00000  Uiso   1.00
Si41   Si    0.76553   0.17947   0.16439   0.00000  Uiso   1.00
Si42   Si    0.89414   0.04693   0.81675   0.00000  Uiso   1.00
Si43   Si    0.74919   0.26295   0.84552   0.00000  Uiso   1.00
Si44   Si    0.83528   0.13896   0.69486   0.00000  Uiso   1.00
Si45   Si    0.57843   0.46638   0.26282   0.00000  Uiso   1.00
Si46   Si    0.71672   0.51992   0.57097   0.00000  Uiso   1.00
Si47   Si    0.87863   0.33603   0.75145   0.00000  Uiso   1.00
Si48   Si    0.89760   0.49746   0.66347   0.00000  Uiso   1.00
Si49   Si    0.57525   0.83777   0.27007   0.00000  Uiso   1.00
Si50   Si    0.80797   0.63689   0.47050   0.00000  Uiso   1.00
Si51   Si    0.91743   0.61779   0.78628   0.00000  Uiso   1.00
C52    C     0.00177  -0.17363   0.16753   0.00000  Uiso   1.00
C53    C    -0.04582   0.10141   0.13192   0.00000  Uiso   1.00
C54    C     0.78449  -0.05005   0.12120   0.00000  Uiso   1.00
C55    C    -0.10179  -0.15530   0.02699   0.00000  Uiso   1.00
C56    C     0.26410   0.24949   0.06093   0.00000  Uiso   1.00
C57    C     0.32923   0.35839  -0.04677   0.00000  Uiso   1.00
C58    C     0.31278   0.15554   0.95455   0.00000  Uiso   1.00
C59    C     0.14872  -0.01283   0.43973   0.00000  Uiso   1.00
O60    O    -0.08835   0.00612   0.24412   0.00000  Uiso   1.00
O61    O    -0.01406  -0.06104   0.34053   0.00000  Uiso   1.00
C62    C     0.06767   0.13177   0.32437   0.00000  Uiso   1.00
O63    O     0.15976   0.20643   0.92970   0.00000  Uiso   1.00
C64    C     1.07102   0.03007   0.95785   0.00000  Uiso   1.00
C65    C     0.19748   0.20071   0.64454   0.00000  Uiso   1.00
C66    C     0.12908   0.21978   0.75997   0.00000  Uiso   1.00
C67    C     0.32575   0.23123   0.77982   0.00000  Uiso   1.00
C68    C     0.34528   0.50925   0.11345   0.00000  Uiso   1.00
C69    C     1.13547   0.47432   0.08499   0.00000  Uiso   1.00
C70    C     1.25123   0.56632  -0.00997   0.00000  Uiso   1.00
C71    C     0.49205   0.79418   0.04575   0.00000  Uiso   1.00
C72    C     0.32389   0.78704   0.94858   0.00000  Uiso   1.00
C73    C     0.44657   0.96089   1.02639   0.00000  Uiso   1.00
C74    C    -0.23180   0.05139   0.43569   0.00000  Uiso   1.00
O75    O    -0.10787   0.04715   0.36173   0.00000  Uiso   1.00
C76    C    -0.13519   0.21108   0.36265   0.00000  Uiso   1.00
C77    C     1.05280   0.35971   0.63903   0.00000  Uiso   1.00
C78    C     0.01423   0.19219   0.99016   0.00000  Uiso   1.00
C79    C     0.23862   0.46242   0.82245   0.00000  Uiso   1.00
O80    O     0.27033   0.36874   0.72244   0.00000  Uiso   1.00
C81    C     0.42913   0.48103   0.80546   0.00000  Uiso   1.00
O82    O     0.16248   0.53948   0.61869   0.00000  Uiso   1.00
O83    O     0.31109   0.54143   0.71456   0.00000  Uiso   1.00
O84    O     0.27257   0.64856   0.11852   0.00000  Uiso   1.00
O85    O     0.32836   0.81535   0.08168   0.00000  Uiso   1.00
C86    C    -0.03101   0.55221   0.18595   0.00000  Uiso   1.00
C87    C    -0.19040   0.68676   0.10067   0.00000  Uiso   1.00
C88    C     0.88931   0.64036   0.27229   0.00000  Uiso   1.00
C89    C     0.96608   0.48952   0.31529   0.00000  Uiso   1.00
O90    O     0.16110   0.73426   0.09796   0.00000  Uiso   1.00
O91    O    -0.01867   0.71429   0.05868   0.00000  Uiso   1.00
C92    C     0.02147   0.44461   0.51441   0.00000  Uiso   1.00
C93    C     0.13092   0.72213   0.50173   0.00000  Uiso   1.00
C94    C     0.21078   0.61082   0.44061   0.00000  Uiso   1.00
C95    C     0.01089   0.88887   0.57658   0.00000  Uiso   1.00
O96    O    -0.00791   0.83321   0.43670   0.00000  Uiso   1.00
C97    C     0.85616   0.89249   0.46800   0.00000  Uiso   1.00
O98    O     0.08546   0.67093   0.29548   0.00000  Uiso   1.00
O99    O     0.21489   0.77809   0.39542   0.00000  Uiso   1.00
O100   O     0.07857   0.83203   0.34116   0.00000  Uiso   1.00
C101   C     0.16025   0.64419   0.79611   0.00000  Uiso   1.00
O102   O     0.26466   0.68262   0.69145   0.00000  Uiso   1.00
C103   C     0.10280   0.73573   0.66618   0.00000  Uiso   1.00
O104   O     0.05985   0.64875   0.98194   0.00000  Uiso   1.00
C105   C    -0.13792   0.57796   0.94906   0.00000  Uiso   1.00
C106   C     0.97853   0.46507   0.94626   0.00000  Uiso   1.00
C107   C     0.41843   0.12793   0.19334   0.00000  Uiso   1.00
C108   C     0.26213   0.97988   0.10955   0.00000  Uiso   1.00
C109   C     0.21539   0.05747   0.21798   0.00000  Uiso   1.00
C110   C     0.73975   0.33405   0.01964   0.00000  Uiso   1.00
C111   C     0.61032   0.41314  -0.05604   0.00000  Uiso   1.00
C112   C     0.56199   0.21710   0.93532   0.00000  Uiso   1.00
C113   C     0.37611   0.16579   0.36463   0.00000  Uiso   1.00
O114   O     0.47506   0.07064   0.44370   0.00000  Uiso   1.00
C115   C     0.56991   0.16554   0.35219   0.00000  Uiso   1.00
C116   C     0.37614   0.11753   0.54223   0.00000  Uiso   1.00
C117   C     0.43618   0.08404   0.68112   0.00000  Uiso   1.00
C118   C     0.23652   0.32707   0.24502   0.00000  Uiso   1.00
C119   C     0.26948   0.52663   0.28319   0.00000  Uiso   1.00
C120   C     0.18621   0.38054   0.36454   0.00000  Uiso   1.00
C121   C     0.44709   0.35515   0.50732   0.00000  Uiso   1.00
O122   O     0.54324   0.26355   0.45604   0.00000  Uiso   1.00
C123   C    -0.02448   0.14713   0.48170   0.00000  Uiso   1.00
C124   C     0.29824   0.45511   0.52681   0.00000  Uiso   1.00
O125   O     0.34088   0.60940   0.60381   0.00000  Uiso   1.00
O126   O     0.37665   0.42674   0.35605   0.00000  Uiso   1.00
O127   O     0.54290   0.43137   0.41947   0.00000  Uiso   1.00
C128   C     0.54945   0.34446   0.77287   0.00000  Uiso   1.00
O129   O     0.47433   0.25026   0.64617   0.00000  Uiso   1.00
C130   C     0.66134   0.35053   0.68250   0.00000  Uiso   1.00
O131   O     0.49692   0.57235   0.59663   0.00000  Uiso   1.00
O132   O     0.52182   0.42952   0.65354   0.00000  Uiso   1.00
O133   O     0.30499   0.79120   0.20187   0.00000  Uiso   1.00
O134   O     0.33427   0.95798   0.24710   0.00000  Uiso   1.00
O135   O     0.20513   0.82480   0.27704   0.00000  Uiso   1.00
O136   O     0.41353   0.63071   0.49804   0.00000  Uiso   1.00
O137   O     0.50072   0.59027   0.40834   0.00000  Uiso   1.00
C138   C     0.59493   0.74378   0.50480   0.00000  Uiso   1.00
O139   O     0.32842   0.77808   0.50764   0.00000  Uiso   1.00
O140   O     0.44004   0.94189   0.53114   0.00000  Uiso   1.00
C141   C     0.32429   0.87073   0.62041   0.00000  Uiso   1.00
O142   O     0.38019   0.85412   0.33278   0.00000  Uiso   1.00
O143   O     0.44589   0.73419   0.40004   0.00000  Uiso   1.00
O144   O     0.52084   0.92057   0.43520   0.00000  Uiso   1.00
C145   C     0.42880   0.71364   0.83298   0.00000  Uiso   1.00
C146   C     0.60136   0.60178   0.72671   0.00000  Uiso   1.00
C147   C     0.63282   0.74721   0.85488   0.00000  Uiso   1.00
C148   C     0.57255   0.89827   0.85967   0.00000  Uiso   1.00
O149   O     0.26626   0.81657   0.76475   0.00000  Uiso   1.00
C150   C     0.20435   0.90010   0.85689   0.00000  Uiso   1.00
C151   C     0.37827   0.99678   0.81468   0.00000  Uiso   1.00
C152   C     0.19530   0.95907   0.72167   0.00000  Uiso   1.00
C153   C     0.09982   0.82757   0.98856   0.00000  Uiso   1.00
O154   O     0.47226   0.81578   0.60779   0.00000  Uiso   1.00
O155   O     0.51701   0.78127   0.73407   0.00000  Uiso   1.00
C156   C     0.59253   0.95207   0.70462   0.00000  Uiso   1.00
C157   C     0.65656   0.81772   0.66632   0.00000  Uiso   1.00
O158   O     0.60689   0.04924   0.53426   0.00000  Uiso   1.00
C159   C     0.73299   0.23384   0.54501   0.00000  Uiso   1.00
O160   O     0.57684   0.16883   0.61005   0.00000  Uiso   1.00
O161   O     0.81209   0.11078   0.19961   0.00000  Uiso   1.00
C162   C     0.68314   0.12293   0.08535   0.00000  Uiso   1.00
C163   C     0.68995   0.20578   0.21100   0.00000  Uiso   1.00
C164   C     0.86683   0.28243   0.16044   0.00000  Uiso   1.00
O165   O     0.98464   0.12253   0.86079   0.00000  Uiso   1.00
C166   C     0.81608   0.99513   0.87219   0.00000  Uiso   1.00
C167   C     0.94291   0.96088   0.78873   0.00000  Uiso   1.00
C168   C     0.65017   0.16068   0.80190   0.00000  Uiso   1.00
C169   C     0.83032   0.23138   0.90838   0.00000  Uiso   1.00
O170   O     0.70525   0.32379   0.88143   0.00000  Uiso   1.00
C171   C     0.90250   0.09904   0.64534   0.00000  Uiso   1.00
O172   O     0.72883   0.12332   0.65213   0.00000  Uiso   1.00
O173   O     0.83917   0.08546   0.75796   0.00000  Uiso   1.00
C174   C     0.62909   0.55574   0.20869   0.00000  Uiso   1.00
C175   C     0.48992   0.36917   0.20311   0.00000  Uiso   1.00
C176   C     0.66985   0.42865   0.31476   0.00000  Uiso   1.00
O177   O     0.52509   0.50207   0.30975   0.00000  Uiso   1.00
O178   O     0.64650   0.42056   0.53377   0.00000  Uiso   1.00
O179   O     0.66018   0.54892   0.61802   0.00000  Uiso   1.00
O180   O     0.79997   0.31811   0.79232   0.00000  Uiso   1.00
O181   O     0.88284   0.24325   0.72190   0.00000  Uiso   1.00
C182   C     0.99387   0.38020   0.81141   0.00000  Uiso   1.00
O183   O     0.98363   0.51052   0.62722   0.00000  Uiso   1.00
O184   O     0.80960   0.50853   0.60945   0.00000  Uiso   1.00
O185   O     0.86722   0.40156   0.69595   0.00000  Uiso   1.00
C186   C     0.51135   0.72346   0.22840   0.00000  Uiso   1.00
C187   C     0.70488   0.86484   0.28473   0.00000  Uiso   1.00
C188   C     0.54412   0.92594   0.21994   0.00000  Uiso   1.00
O189   O     0.54697   0.85206   0.33398   0.00000  Uiso   1.00
O190   O     0.73892   0.59303   0.51961   0.00000  Uiso   1.00
C191   C     0.87311   0.56573   0.45779   0.00000  Uiso   1.00
C192   C     0.73268   0.66236   0.39579   0.00000  Uiso   1.00
O193   O     0.88271   0.73170   0.50396   0.00000  Uiso   1.00
C194   C     0.79741   0.57382   0.79237   0.00000  Uiso   1.00
O195   O     0.93587   0.57638   0.72281   0.00000  Uiso   1.00
C196   C     0.94208   0.74032   0.78233   0.00000  Uiso   1.00
O197   O     0.97878   0.59836   0.85306   0.00000  Uiso   1.00
H198   H     0.01208  -0.22877   0.19850   0.00000  Uiso   1.00
H199   H    -0.03536  -0.13840   0.18959   0.00000  Uiso   1.00
H200   H     0.07209  -0.13118   0.15662   0.00000  Uiso   1.00
H201   H     0.02220   0.13914   0.16412   0.00000  Uiso   1.00
H202   H    -0.07122   0.14659   0.09700   0.00000  Uiso   1.00
H203   H    -0.03228   0.04451   0.10746   0.00000  Uiso   1.00
H204   H     0.81249  -0.10111   0.13326   0.00000  Uiso   1.00
H205   H     0.77282  -0.03829   0.07009   0.00000  Uiso   1.00
H206   H     0.71790  -0.06702   0.13768   0.00000  Uiso   1.00
H207   H    -0.11172  -0.18636  -0.02431   0.00000  Uiso   1.00
H208   H    -0.04179  -0.08906   0.02937   0.00000  Uiso   1.00
H209   H    -0.16014  -0.13575   0.03356   0.00000  Uiso   1.00
H210   H     0.33128   0.28610   0.09359   0.00000  Uiso   1.00
H211   H     0.24054   0.18183   0.08023   0.00000  Uiso   1.00
H212   H     0.21113   0.27973   0.07062   0.00000  Uiso   1.00
H213   H     0.28405   0.39563  -0.04292   0.00000  Uiso   1.00
H214   H     0.33157   0.35573  -0.09971   0.00000  Uiso   1.00
H215   H     0.39588   0.38728  -0.01117   0.00000  Uiso   1.00
H216   H     0.32849   0.11666   0.99264   0.00000  Uiso   1.00
H217   H     0.37375   0.18779   0.93375   0.00000  Uiso   1.00
H218   H     0.26745   0.09886   0.91172   0.00000  Uiso   1.00
H219   H     0.18293  -0.05061   0.47521   0.00000  Uiso   1.00
H220   H     0.12225   0.03266   0.46162   0.00000  Uiso   1.00
H221   H     0.18797   0.02193   0.40831   0.00000  Uiso   1.00
H222   H     0.11376   0.15494   0.37429   0.00000  Uiso   1.00
H223   H     0.05134   0.19000   0.30976   0.00000  Uiso   1.00
H224   H     0.10849   0.12120   0.29009   0.00000  Uiso   1.00
H225   H     1.12912   0.02369   0.94002   0.00000  Uiso   1.00
H226   H     1.01332  -0.02813   0.94180   0.00000  Uiso   1.00
H227   H     1.09660   0.04012   1.01276   0.00000  Uiso   1.00
H228   H     0.12219   0.16885   0.63177   0.00000  Uiso   1.00
H229   H     0.22846   0.14830   0.64043   0.00000  Uiso   1.00
H230   H     0.22341   0.25585   0.61389   0.00000  Uiso   1.00
H231   H     0.11011   0.14320   0.76117   0.00000  Uiso   1.00
H232   H     0.07100   0.23688   0.72948   0.00000  Uiso   1.00
H233   H     0.14054   0.25525   0.80807   0.00000  Uiso   1.00
H234   H     0.36896   0.28831   0.81801   0.00000  Uiso   1.00
H235   H     0.36833   0.20644   0.75339   0.00000  Uiso   1.00
H236   H     0.28978   0.17656   0.80631   0.00000  Uiso   1.00
H237   H     0.33005   0.43778   0.09461   0.00000  Uiso   1.00
H238   H     0.34507   0.49710   0.16676   0.00000  Uiso   1.00
H239   H     0.41019   0.55945   0.10452   0.00000  Uiso   1.00
H240   H     1.15227   0.44430   0.13100   0.00000  Uiso   1.00
H241   H     1.11279   0.41040   0.05271   0.00000  Uiso   1.00
H242   H     1.08670   0.50912   0.09199   0.00000  Uiso   1.00
H243   H     1.21847   0.49893  -0.03325   0.00000  Uiso   1.00
H244   H     1.32789   0.59926  -0.00881   0.00000  Uiso   1.00
H245   H     1.21261   0.61007  -0.03206   0.00000  Uiso   1.00
H246   H     0.47147   0.72201   0.05355   0.00000  Uiso   1.00
H247   H     0.54911   0.83372   0.08471   0.00000  Uiso   1.00
H248   H     0.52409   0.80355   0.00112   0.00000  Uiso   1.00
H249   H     0.35286   0.83466   0.91523   0.00000  Uiso   1.00
H250   H     0.24699   0.77215   0.94647   0.00000  Uiso   1.00
H251   H     0.33954   0.72476   0.94073   0.00000  Uiso   1.00
H252   H     0.50720   0.97913   1.00264   0.00000  Uiso   1.00
H253   H     0.47810   0.99591   1.08151   0.00000  Uiso   1.00
H254   H     0.40161   0.99971   1.00136   0.00000  Uiso   1.00
H255   H    -0.20903   0.04875   0.48883   0.00000  Uiso   1.00
H256   H    -0.25448  -0.01821   0.41675   0.00000  Uiso   1.00
H257   H    -0.27877   0.08959   0.41922   0.00000  Uiso   1.00
H258   H    -0.17566   0.19285   0.31227   0.00000  Uiso   1.00
H259   H    -0.06611   0.26411   0.37062   0.00000  Uiso   1.00
H260   H    -0.17946   0.23836   0.38292   0.00000  Uiso   1.00
H261   H     1.11915   0.35061   0.63557   0.00000  Uiso   1.00
H262   H     0.98824   0.29954   0.61520   0.00000  Uiso   1.00
H263   H     1.05839   0.37335   0.69035   0.00000  Uiso   1.00
H264   H     0.02237   0.26403   0.98526   0.00000  Uiso   1.00
H265   H     0.05785   0.18565   1.03355   0.00000  Uiso   1.00
H266   H    -0.05620   0.14712   0.98196   0.00000  Uiso   1.00
H267   H     0.28160   0.51398   0.86517   0.00000  Uiso   1.00
H268   H     0.21322   0.39954   0.84153   0.00000  Uiso   1.00
H269   H     0.17923   0.47936   0.79676   0.00000  Uiso   1.00
H270   H     0.45461   0.55341   0.82118   0.00000  Uiso   1.00
H271   H     0.46673   0.47388   0.76802   0.00000  Uiso   1.00
H272   H     0.44807   0.44103   0.84748   0.00000  Uiso   1.00
H273   H    -0.09692   0.49662   0.16895   0.00000  Uiso   1.00
H274   H     0.02470   0.53025   0.17847   0.00000  Uiso   1.00
H275   H    -0.02868   0.60544   0.15353   0.00000  Uiso   1.00
H276   H    -0.18213   0.62260   0.11504   0.00000  Uiso   1.00
H277   H    -0.24753   0.68063   0.05592   0.00000  Uiso   1.00
H278   H    -0.21152   0.71759   0.14050   0.00000  Uiso   1.00
H279   H     0.82382   0.58621   0.25367   0.00000  Uiso   1.00
H280   H     0.89058   0.70128   0.24555   0.00000  Uiso   1.00
H281   H     0.89594   0.65933   0.32435   0.00000  Uiso   1.00
H282   H     1.02093   0.46378   0.31385   0.00000  Uiso   1.00
H283   H     0.89428   0.44163   0.30564   0.00000  Uiso   1.00
H284   H     0.98369   0.51875   0.36806   0.00000  Uiso   1.00
H285   H     0.02503   0.50797   0.48966   0.00000  Uiso   1.00
H286   H    -0.05293   0.39658   0.49480   0.00000  Uiso   1.00
H287   H     0.06902   0.41289   0.49995   0.00000  Uiso   1.00
H288   H     0.13701   0.68908   0.54859   0.00000  Uiso   1.00
H289   H     0.06178   0.67902   0.47208   0.00000  Uiso   1.00
H290   H     0.13554   0.79115   0.51643   0.00000  Uiso   1.00
H291   H     0.19842   0.56986   0.48219   0.00000  Uiso   1.00
H292   H     0.26483   0.60729   0.41762   0.00000  Uiso   1.00
H293   H     0.13886   0.58589   0.40671   0.00000  Uiso   1.00
H294   H     0.08784   0.90097   0.58478   0.00000  Uiso   1.00
H295   H    -0.00958   0.85019   0.61705   0.00000  Uiso   1.00
H296   H     0.00420   0.95781   0.57662   0.00000  Uiso   1.00
H297   H     0.90602   0.95274   0.45544   0.00000  Uiso   1.00
H298   H     0.81503   0.88648   0.50444   0.00000  Uiso   1.00
H299   H     0.80363   0.85856   0.42164   0.00000  Uiso   1.00
H300   H     0.14675   0.68897   0.83205   0.00000  Uiso   1.00
H301   H     0.21806   0.61736   0.82337   0.00000  Uiso   1.00
H302   H     0.09806   0.58949   0.77184   0.00000  Uiso   1.00
H303   H     0.05269   0.67154   0.63112   0.00000  Uiso   1.00
H304   H     0.12545   0.79200   0.63442   0.00000  Uiso   1.00
H305   H     0.05395   0.74983   0.69411   0.00000  Uiso   1.00
H306   H    -0.14392   0.57095   1.00294   0.00000  Uiso   1.00
H307   H    -0.19724   0.51465   0.92444   0.00000  Uiso   1.00
H308   H    -0.16657   0.62843   0.92856   0.00000  Uiso   1.00
H309   H     0.92146   0.41899   0.91169   0.00000  Uiso   1.00
H310   H     0.96304   0.44645   0.99370   0.00000  Uiso   1.00
H311   H     1.04495   0.46242   0.93483   0.00000  Uiso   1.00
H312   H     0.39177   0.17297   0.16060   0.00000  Uiso   1.00
H313   H     0.47096   0.10193   0.18082   0.00000  Uiso   1.00
H314   H     0.43460   0.16419   0.24370   0.00000  Uiso   1.00
H315   H     0.32733   0.98170   0.08970   0.00000  Uiso   1.00
H316   H     0.22882   1.02698   0.08364   0.00000  Uiso   1.00
H317   H     0.20832   0.91198   0.10172   0.00000  Uiso   1.00
H318   H     0.18868   0.01222   0.25357   0.00000  Uiso   1.00
H319   H     0.15281   0.04606   0.17518   0.00000  Uiso   1.00
H320   H     0.24344   0.12905   0.23798   0.00000  Uiso   1.00
H321   H     0.77857   0.28678   0.02128   0.00000  Uiso   1.00
H322   H     0.69749   0.31809   0.05636   0.00000  Uiso   1.00
H323   H     0.79503   0.40707   0.02748   0.00000  Uiso   1.00
H324   H     0.53763   0.38657  -0.08305   0.00000  Uiso   1.00
H325   H     0.64135   0.47688  -0.08079   0.00000  Uiso   1.00
H326   H     0.61340   0.42639  -0.00214   0.00000  Uiso   1.00
H327   H     0.50790   0.21038   0.89419   0.00000  Uiso   1.00
H328   H     0.54291   0.20410   0.98445   0.00000  Uiso   1.00
H329   H     0.58269   0.15852   0.91850   0.00000  Uiso   1.00
H330   H     0.33734   0.18040   0.39998   0.00000  Uiso   1.00
H331   H     0.33718   0.09567   0.33985   0.00000  Uiso   1.00
H332   H     0.37751   0.21073   0.32612   0.00000  Uiso   1.00
H333   H     0.55605   0.09788   0.33178   0.00000  Uiso   1.00
H334   H     0.63959   0.18302   0.38109   0.00000  Uiso   1.00
H335   H     0.56451   0.21580   0.31480   0.00000  Uiso   1.00
H336   H     0.34092   0.04343   0.53281   0.00000  Uiso   1.00
H337   H     0.40102   0.14036   0.49917   0.00000  Uiso   1.00
H338   H     0.32697   0.15220   0.54583   0.00000  Uiso   1.00
H339   H     0.44944   0.01760   0.68522   0.00000  Uiso   1.00
H340   H     0.35945   0.05906   0.66933   0.00000  Uiso   1.00
H341   H     0.47094   0.12957   0.72872   0.00000  Uiso   1.00
H342   H     0.28648   0.33681   0.21625   0.00000  Uiso   1.00
H343   H     0.17128   0.33172   0.21699   0.00000  Uiso   1.00
H344   H     0.22572   0.25996   0.26829   0.00000  Uiso   1.00
H345   H     0.31455   0.55121   0.24619   0.00000  Uiso   1.00
H346   H     0.29638   0.58155   0.31842   0.00000  Uiso   1.00
H347   H     0.19488   0.51182   0.26324   0.00000  Uiso   1.00
H348   H     0.20560   0.32953   0.39586   0.00000  Uiso   1.00
H349   H     0.11674   0.34825   0.33477   0.00000  Uiso   1.00
H350   H     0.18582   0.43968   0.39774   0.00000  Uiso   1.00
H351   H     0.44362   0.30583   0.54227   0.00000  Uiso   1.00
H352   H     0.38397   0.33109   0.46677   0.00000  Uiso   1.00
H353   H     0.46037   0.42345   0.52618   0.00000  Uiso   1.00
H354   H     0.04333   0.16047   0.47240   0.00000  Uiso   1.00
H355   H    -0.03682   0.09175   0.51445   0.00000  Uiso   1.00
H356   H    -0.02967   0.20460   0.51011   0.00000  Uiso   1.00
H357   H     0.31022   0.39982   0.55347   0.00000  Uiso   1.00
H358   H     0.30755   0.44007   0.47701   0.00000  Uiso   1.00
H359   H     0.23280   0.45248   0.53499   0.00000  Uiso   1.00
H360   H     0.48944   0.35574   0.78320   0.00000  Uiso   1.00
H361   H     0.60774   0.40548   0.79424   0.00000  Uiso   1.00
H362   H     0.56171   0.28719   0.79444   0.00000  Uiso   1.00
H363   H     0.67084   0.33952   0.63297   0.00000  Uiso   1.00
H364   H     0.66105   0.28399   0.70640   0.00000  Uiso   1.00
H365   H     0.71220   0.40987   0.71592   0.00000  Uiso   1.00
H366   H     0.58618   0.79474   0.53757   0.00000  Uiso   1.00
H367   H     0.64321   0.78191   0.47329   0.00000  Uiso   1.00
H368   H     0.63123   0.70306   0.53565   0.00000  Uiso   1.00
H369   H     0.35838   0.86403   0.66702   0.00000  Uiso   1.00
H370   H     0.26328   0.80948   0.60438   0.00000  Uiso   1.00
H371   H     0.30223   0.93001   0.60566   0.00000  Uiso   1.00
H372   H     0.37657   0.74689   0.82726   0.00000  Uiso   1.00
H373   H     0.44379   0.68368   0.88135   0.00000  Uiso   1.00
H374   H     0.40263   0.65495   0.79326   0.00000  Uiso   1.00
H375   H     0.66678   0.65821   0.73238   0.00000  Uiso   1.00
H376   H     0.60793   0.55311   0.76639   0.00000  Uiso   1.00
H377   H     0.54845   0.62854   0.73575   0.00000  Uiso   1.00
H378   H     0.61088   0.67351   0.86050   0.00000  Uiso   1.00
H379   H     0.67226   0.78457   0.90462   0.00000  Uiso   1.00
H380   H     0.67910   0.75976   0.82358   0.00000  Uiso   1.00
H381   H     0.59999   0.89265   0.91344   0.00000  Uiso   1.00
H382   H     0.51276   0.92458   0.85442   0.00000  Uiso   1.00
H383   H     0.62982   0.94373   0.84148   0.00000  Uiso   1.00
H384   H     0.25129   0.93648   0.90446   0.00000  Uiso   1.00
H385   H     0.17061   0.82750   0.85677   0.00000  Uiso   1.00
H386   H     0.14662   0.92554   0.84840   0.00000  Uiso   1.00
H387   H     0.37115   1.06744   0.80441   0.00000  Uiso   1.00
H388   H     0.41946   0.97702   0.78041   0.00000  Uiso   1.00
H389   H     0.40951   0.98934   0.86989   0.00000  Uiso   1.00
H390   H     0.21981   1.03210   0.73360   0.00000  Uiso   1.00
H391   H     0.12076   0.92213   0.71276   0.00000  Uiso   1.00
H392   H     0.21707   0.94869   0.67859   0.00000  Uiso   1.00
H393   H     0.09698   0.88471   1.01226   0.00000  Uiso   1.00
H394   H     0.04699   0.80868   0.94045   0.00000  Uiso   1.00
H395   H     0.17210   0.85139   0.97939   0.00000  Uiso   1.00
H396   H     0.58142   0.99445   0.66420   0.00000  Uiso   1.00
H397   H     0.66576   0.98148   0.72974   0.00000  Uiso   1.00
H398   H     0.55735   0.96227   0.74294   0.00000  Uiso   1.00
H399   H     0.68712   0.86062   0.63209   0.00000  Uiso   1.00
H400   H     0.63345   0.74518   0.64772   0.00000  Uiso   1.00
H401   H     0.70857   0.83201   0.71612   0.00000  Uiso   1.00
H402   H     0.79941   0.22427   0.54751   0.00000  Uiso   1.00
H403   H     0.74890   0.30161   0.57380   0.00000  Uiso   1.00
H404   H     0.70344   0.23852   0.49527   0.00000  Uiso   1.00
H405   H     0.63236   0.15552   0.07085   0.00000  Uiso   1.00
H406   H     0.64577   0.04874   0.09179   0.00000  Uiso   1.00
H407   H     0.72824   0.12918   0.05243   0.00000  Uiso   1.00
H408   H     0.73081   0.26628   0.24375   0.00000  Uiso   1.00
H409   H     0.65754   0.14598   0.23810   0.00000  Uiso   1.00
H410   H     0.62772   0.22094   0.17876   0.00000  Uiso   1.00
H411   H     0.84935   0.34434   0.15566   0.00000  Uiso   1.00
H412   H     0.90081   0.27221   0.12135   0.00000  Uiso   1.00
H413   H     0.92157   0.27918   0.20382   0.00000  Uiso   1.00
H414   H     0.78742   1.04720   0.88619   0.00000  Uiso   1.00
H415   H     0.84898   0.96489   0.91659   0.00000  Uiso   1.00
H416   H     0.75831   0.93782   0.83898   0.00000  Uiso   1.00
H417   H     0.89173   0.91777   0.74845   0.00000  Uiso   1.00
H418   H     0.96450   0.91978   0.83000   0.00000  Uiso   1.00
H419   H     1.00564   1.00359   0.77319   0.00000  Uiso   1.00
H420   H     0.63953   0.15450   0.74699   0.00000  Uiso   1.00
H421   H     0.58215   0.15831   0.81694   0.00000  Uiso   1.00
H422   H     0.67294   0.10562   0.81916   0.00000  Uiso   1.00
H423   H     0.86664   0.28456   0.94908   0.00000  Uiso   1.00
H424   H     0.88098   0.21244   0.88947   0.00000  Uiso   1.00
H425   H     0.78898   0.17602   0.93351   0.00000  Uiso   1.00
H426   H     0.90833   0.13389   0.60042   0.00000  Uiso   1.00
H427   H     0.86359   0.03260   0.62850   0.00000  Uiso   1.00
H428   H     0.97384   0.09986   0.67436   0.00000  Uiso   1.00
H429   H     0.68534   0.61642   0.23905   0.00000  Uiso   1.00
H430   H     0.56506   0.56734   0.17971   0.00000  Uiso   1.00
H431   H     0.65781   0.52965   0.17220   0.00000  Uiso   1.00
H432   H     0.51512   0.33228   0.17311   0.00000  Uiso   1.00
H433   H     0.44131   0.39762   0.17498   0.00000  Uiso   1.00
H434   H     0.44449   0.31682   0.23018   0.00000  Uiso   1.00
H435   H     0.64295   0.38946   0.35325   0.00000  Uiso   1.00
H436   H     0.73320   0.48794   0.33424   0.00000  Uiso   1.00
H437   H     0.68492   0.37813   0.28702   0.00000  Uiso   1.00
H438   H     1.01587   0.45601   0.82156   0.00000  Uiso   1.00
H439   H     1.04581   0.36568   0.78881   0.00000  Uiso   1.00
H440   H     0.99586   0.34457   0.85602   0.00000  Uiso   1.00
H441   H     0.43966   0.70671   0.23444   0.00000  Uiso   1.00
H442   H     0.55023   0.67810   0.25250   0.00000  Uiso   1.00
H443   H     0.52341   0.72676   0.17696   0.00000  Uiso   1.00
H444   H     0.74711   0.93571   0.30576   0.00000  Uiso   1.00
H445   H     0.71866   0.85363   0.23345   0.00000  Uiso   1.00
H446   H     0.72470   0.81464   0.31480   0.00000  Uiso   1.00
H447   H     0.47530   0.89851   0.18650   0.00000  Uiso   1.00
H448   H     0.59322   0.94699   0.18886   0.00000  Uiso   1.00
H449   H     0.55749   0.99084   0.24798   0.00000  Uiso   1.00
H450   H     0.91992   0.59683   0.42482   0.00000  Uiso   1.00
H451   H     0.81700   0.49674   0.43453   0.00000  Uiso   1.00
H452   H     0.91215   0.56318   0.50913   0.00000  Uiso   1.00
H453   H     0.70400   0.71167   0.41322   0.00000  Uiso   1.00
H454   H     0.67788   0.60261   0.36751   0.00000  Uiso   1.00
H455   H     0.77239   0.69743   0.35977   0.00000  Uiso   1.00
H456   H     0.77867   0.50114   0.80764   0.00000  Uiso   1.00
H457   H     0.75276   0.56633   0.74221   0.00000  Uiso   1.00
H458   H     0.78372   0.62219   0.82210   0.00000  Uiso   1.00
H459   H     1.01977   0.77870   0.79643   0.00000  Uiso   1.00
H460   H     0.90155   0.76242   0.81193   0.00000  Uiso   1.00
H461   H     0.91109   0.74258   0.72767   0.00000  Uiso   1.00
loop_
_geom_bond_atom_site_label_1
_geom_bond_atom_site_label_2
_geom_bond_distance
_geom_bond_site_symmetry_2
_ccdc_geom_bond_type
Si1    C52     1.827   .     S
Si1    C55     1.915   .     S
Si1    C87     1.894   1_545 S
Si1    O91     1.572   1_545 S
Si2    C53     1.892   .     S
Si2    O60     1.590   .     S
Si2    C54     1.852   1_455 S
Si2    O161    1.623   1_455 S
Si3    C56     1.839   .     S
Si3    C57     1.843   .     S
Si3    C58     1.897   1_554 S
Si3    O63     1.573   1_554 S
Si4    C59     1.846   .     S
Si4    O61     1.604   .     S
Si4    O96     1.578   1_545 S
Si4    O100    1.642   1_545 S
Si5    O60     1.568   .     S
Si5    O61     1.616   .     S
Si5    C62     1.906   .     S
Si5    O75     1.622   .     S
Si6    O63     1.586   .     S
Si6    C78     1.827   .     S
Si6    C64     1.906   1_455 S
Si6    O165    1.613   1_455 S
Si7    C65     1.832   .     S
Si7    C66     1.857   .     S
Si7    C67     1.822   .     S
Si7    O80     1.585   .     S
Si8    C68     1.888   .     S
Si8    O84     1.582   .     S
Si8    C69     1.864   1_455 S
Si8    C70     1.841   1_455 S
Si9    C71     1.847   .     S
Si9    O85     1.594   .     S
Si9    C72     1.828   1_554 S
Si9    C73     1.862   1_554 S
Si10   C74     1.846   .     S
Si10   O75     1.555   .     S
Si10   C76     1.862   .     S
Si10   C123    1.847   .     S
Si11   O82     1.641   .     S
Si11   C92     1.829   .     S
Si11   C77     1.890   1_455 S
Si11   O183    1.600   1_455 S
Si12   C79     1.835   .     S
Si12   O80     1.538   .     S
Si12   C81     1.845   .     S
Si12   O83     1.597   .     S
Si13   O82     1.658   .     S
Si13   O83     1.614   .     S
Si13   O102    1.588   .     S
Si13   O125    1.677   .     S
Si14   O84     1.592   .     S
Si14   O85     1.608   .     S
Si14   O90     1.575   .     S
Si14   O133    1.644   .     S
Si15   C86     1.827   .     S
Si15   O98     1.603   .     S
Si15   C88     1.877   1_455 S
Si15   C89     1.860   1_455 S
Si16   O90     1.585   .     S
Si16   O91     1.650   .     S
Si16   O104    1.598   1_554 S
Si16   C153    1.819   1_554 S
Si17   C93     1.870   .     S
Si17   C94     1.806   .     S
Si17   O99     1.584   .     S
Si17   O139    1.606   .     S
Si18   C95     1.863   .     S
Si18   O96     1.618   .     S
Si18   C97     1.817   1_455 S
Si18   O193    1.584   1_455 S
Si19   O98     1.671   .     S
Si19   O99     1.582   .     S
Si19   O100    1.613   .     S
Si19   O135    1.606   .     S
Si20   C101    1.953   .     S
Si20   O102    1.578   .     S
Si20   C103    1.885   .     S
Si20   O149    1.617   .     S
Si21   O104    1.594   .     S
Si21   C105    1.894   .     S
Si21   C106    1.851   1_455 S
Si21   O197    1.636   1_455 S
Si22   C107    1.876   .     S
Si22   C109    1.887   .     S
Si22   C108    1.848   1_545 S
Si22   O134    1.598   1_545 S
Si23   C110    1.828   .     S
Si23   C111    1.836   .     S
Si23   C112    1.804   1_554 S
Si23   O170    1.562   1_554 S
Si24   O114    1.659   .     S
Si24   O158    1.597   .     S
Si24   O140    1.627   1_545 S
Si24   O144    1.628   1_545 S
Si25   C113    1.893   .     S
Si25   O114    1.658   .     S
Si25   C115    1.818   .     S
Si25   O122    1.666   .     S
Si26   C116    1.848   .     S
Si26   C117    1.808   .     S
Si26   O129    1.608   .     S
Si26   O160    1.618   .     S
Si27   C118    1.855   .     S
Si27   C119    1.877   .     S
Si27   C120    1.839   .     S
Si27   O126    1.623   .     S
Si28   C121    1.825   .     S
Si28   O122    1.646   .     S
Si28   O127    1.565   .     S
Si28   O178    1.667   .     S
Si29   C124    1.861   .     S
Si29   O125    1.634   .     S
Si29   O131    1.652   .     S
Si29   O136    1.637   .     S
Si30   O126    1.643   .     S
Si30   O127    1.634   .     S
Si30   O137    1.646   .     S
Si30   O177    1.591   .     S
Si31   C128    1.846   .     S
Si31   O129    1.585   .     S
Si31   C130    1.803   .     S
Si31   O132    1.607   .     S
Si32   O131    1.601   .     S
Si32   O132    1.606   .     S
Si32   C146    1.860   .     S
Si32   O179    1.620   .     S
Si33   O133    1.638   .     S
Si33   O134    1.549   .     S
Si33   O135    1.560   .     S
Si33   O142    1.694   .     S
Si34   O136    1.618   .     S
Si34   O137    1.656   .     S
Si34   C138    1.838   .     S
Si34   O143    1.630   .     S
Si35   O139    1.591   .     S
Si35   O140    1.609   .     S
Si35   C141    1.833   .     S
Si35   O154    1.610   .     S
Si36   O142    1.583   .     S
Si36   O143    1.691   .     S
Si36   O144    1.618   .     S
Si36   O189    1.602   .     S
Si37   C145    1.859   .     S
Si37   C147    1.879   .     S
Si37   C148    1.833   .     S
Si37   O155    1.589   .     S
Si38   O149    1.596   .     S
Si38   C150    1.882   .     S
Si38   C151    1.811   .     S
Si38   C152    1.838   .     S
Si39   O154    1.578   .     S
Si39   O155    1.599   .     S
Si39   C156    1.817   .     S
Si39   C157    1.803   .     S
Si40   O158    1.630   .     S
Si40   C159    1.903   .     S
Si40   O160    1.635   .     S
Si40   O172    1.676   .     S
Si41   O161    1.594   .     S
Si41   C162    1.854   .     S
Si41   C163    1.836   .     S
Si41   C164    1.869   .     S
Si42   O165    1.594   .     S
Si42   O173    1.583   .     S
Si42   C166    1.869   1_545 S
Si42   C167    1.910   1_545 S
Si43   C168    1.871   .     S
Si43   C169    1.809   .     S
Si43   O170    1.619   .     S
Si43   O180    1.605   .     S
Si44   C171    1.872   .     S
Si44   O172    1.642   .     S
Si44   O173    1.571   .     S
Si44   O181    1.596   .     S
Si45   C174    1.889   .     S
Si45   C175    1.896   .     S
Si45   C176    1.861   .     S
Si45   O177    1.629   .     S
Si46   O178    1.645   .     S
Si46   O179    1.619   .     S
Si46   O184    1.565   .     S
Si46   O190    1.586   .     S
Si47   O180    1.605   .     S
Si47   O181    1.609   .     S
Si47   C182    1.856   .     S
Si47   O185    1.578   .     S
Si48   O183    1.648   .     S
Si48   O184    1.634   .     S
Si48   O185    1.626   .     S
Si48   O195    1.607   .     S
Si49   C186    1.837   .     S
Si49   C187    1.883   .     S
Si49   C188    1.873   .     S
Si49   O189    1.537   .     S
Si50   O190    1.648   .     S
Si50   C191    1.804   .     S
Si50   C192    1.868   .     S
Si50   O193    1.591   .     S
Si51   C194    1.810   .     S
Si51   O195    1.599   .     S
Si51   C196    1.842   .     S
Si51   O197    1.602   .     S
C52    H198    1.120   .     S
C52    H199    1.092   .     S
C52    H200    1.156   .     S
C53    H201    1.091   .     S
C53    H202    1.124   .     S
C53    H203    1.131   .     S
C54    H204    1.045   .     S
C54    H205    1.071   .     S
C54    H206    1.121   .     S
C54    Si2     1.852   1_655 S
C55    H207    1.131   .     S
C55    H208    1.138   .     S
C55    H209    1.093   .     S
C56    H210    1.082   .     S
C56    H211    1.115   .     S
C56    H212    1.139   .     S
C57    H213    1.075   .     S
C57    H214    1.117   .     S
C57    H215    1.086   .     S
C58    H216    1.043   .     S
C58    H217    1.108   .     S
C58    H218    1.174   .     S
C58    Si3     1.897   1_556 S
C59    H219    1.110   .     S
C59    H220    1.084   .     S
C59    H221    1.035   .     S
C62    H222    1.105   .     S
C62    H223    1.061   .     S
C62    H224    1.108   .     S
O63    Si3     1.573   1_556 S
C64    H225    1.092   .     S
C64    H226    1.036   .     S
C64    H227    1.118   .     S
C64    Si6     1.906   1_655 S
C65    H228    1.084   .     S
C65    H229    1.100   .     S
C65    H230    1.104   .     S
C66    H231    1.142   .     S
C66    H232    1.102   .     S
C66    H233    1.095   .     S
C67    H234    1.114   .     S
C67    H235    1.114   .     S
C67    H236    1.090   .     S
C68    H237    1.117   .     S
C68    H238    1.133   .     S
C68    H239    1.116   .     S
C69    H240    1.093   .     S
C69    H241    1.112   .     S
C69    H242    1.112   .     S
C69    Si8     1.864   1_655 S
C70    H243    1.068   .     S
C70    H244    1.133   .     S
C70    H245    1.101   .     S
C70    Si8     1.841   1_655 S
C71    H246    1.096   .     S
C71    H247    1.069   .     S
C71    H248    1.144   .     S
C72    H249    1.085   .     S
C72    H250    1.139   .     S
C72    H251    1.107   .     S
C72    Si9     1.828   1_556 S
C73    H252    1.125   .     S
C73    H253    1.195   .     S
C73    H254    1.127   .     S
C73    Si9     1.862   1_556 S
C74    H255    1.093   .     S
C74    H256    1.073   .     S
C74    H257    1.099   .     S
C76    H258    1.080   .     S
C76    H259    1.099   .     S
C76    H260    1.084   .     S
C77    H261    1.115   .     S
C77    H262    1.137   .     S
C77    H263    1.071   .     S
C77    Si11    1.890   1_655 S
C78    H264    1.103   .     S
C78    H265    1.034   .     S
C78    H266    1.068   .     S
C79    H267    1.123   .     S
C79    H268    1.054   .     S
C79    H269    1.082   .     S
C81    H270    1.093   .     S
C81    H271    1.107   .     S
C81    H272    1.128   .     S
C86    H273    1.088   .     S
C86    H274    1.082   .     S
C86    H275    1.078   .     S
C87    H276    1.096   .     S
C87    H277    1.118   .     S
C87    H278    1.125   .     S
C87    Si1     1.894   1_565 S
C88    H279    1.078   .     S
C88    H280    1.110   .     S
C88    H281    1.099   .     S
C88    Si15    1.877   1_655 S
C89    H282    1.072   .     S
C89    H283    1.097   .     S
C89    H284    1.129   .     S
C89    Si15    1.860   1_655 S
O91    Si1     1.572   1_565 S
C92    H285    1.117   .     S
C92    H286    1.136   .     S
C92    H287    1.116   .     S
C93    H288    1.113   .     S
C93    H289    1.104   .     S
C93    H290    1.101   .     S
C94    H291    1.100   .     S
C94    H292    1.081   .     S
C94    H293    1.126   .     S
C95    H294    1.129   .     S
C95    H295    1.090   .     S
C95    H296    1.125   .     S
O96    Si4     1.578   1_565 S
C97    H297    1.086   .     S
C97    H298    1.090   .     S
C97    H299    1.114   .     S
C97    Si18    1.817   1_655 S
O100   Si4     1.642   1_565 S
C101   H300    1.127   .     S
C101   H301    1.163   .     S
C101   H302    1.076   .     S
C103   H303    1.172   .     S
C103   H304    1.121   .     S
C103   H305    1.136   .     S
O104   Si16    1.598   1_556 S
C105   H306    1.154   .     S
C105   H307    1.131   .     S
C105   H308    1.083   .     S
C106   H309    1.056   .     S
C106   H310    1.093   .     S
C106   H311    1.134   .     S
C106   Si21    1.851   1_655 S
C107   H312    1.106   .     S
C107   H313    1.112   .     S
C107   H314    1.128   .     S
C108   H315    1.179   .     S
C108   H316    1.120   .     S
C108   H317    1.101   .     S
C108   Si22    1.848   1_565 S
C109   H318    1.088   .     S
C109   H319    1.131   .     S
C109   H320    1.103   .     S
C110   H321    1.104   .     S
C110   H322    1.101   .     S
C110   H323    1.168   .     S
C111   H324    1.086   .     S
C111   H325    1.142   .     S
C111   H326    1.132   .     S
C112   H327    1.039   .     S
C112   H328    1.134   .     S
C112   H329    1.152   .     S
C112   Si23    1.804   1_556 S
C113   H330    1.124   .     S
C113   H331    1.121   .     S
C113   H332    1.075   .     S
C115   H333    1.077   .     S
C115   H334    1.065   .     S
C115   H335    1.126   .     S
C116   H336    1.104   .     S
C116   H337    1.078   .     S
C116   H338    1.098   .     S
C117   H339    1.133   .     S
C117   H340    1.101   .     S
C117   H341    1.133   .     S
C118   H342    1.064   .     S
C118   H343    1.085   .     S
C118   H344    1.143   .     S
C119   H345    1.147   .     S
C119   H346    1.036   .     S
C119   H347    1.092   .     S
C120   H348    1.117   .     S
C120   H349    1.073   .     S
C120   H350    1.159   .     S
C121   H351    1.066   .     S
C121   H352    1.099   .     S
C121   H353    1.078   .     S
C123   H354    1.076   .     S
C123   H355    1.105   .     S
C123   H356    1.114   .     S
C124   H357    1.083   .     S
C124   H358    1.118   .     S
C124   H359    1.065   .     S
C128   H360    1.080   .     S
C128   H361    1.086   .     S
C128   H362    1.066   .     S
C130   H363    1.100   .     S
C130   H364    1.163   .     S
C130   H365    1.112   .     S
O134   Si22    1.598   1_565 S
C138   H366    1.113   .     S
C138   H367    1.138   .     S
C138   H368    1.112   .     S
O140   Si24    1.627   1_565 S
C141   H369    1.025   .     S
C141   H370    1.091   .     S
C141   H371    1.121   .     S
O144   Si24    1.628   1_565 S
C145   H372    1.097   .     S
C145   H373    1.129   .     S
C145   H374    1.137   .     S
C146   H375    1.090   .     S
C146   H376    1.144   .     S
C146   H377    1.098   .     S
C147   H378    1.109   .     S
C147   H379    1.126   .     S
C147   H380    1.056   .     S
C148   H381    1.125   .     S
C148   H382    1.130   .     S
C148   H383    1.091   .     S
C150   H384    1.113   .     S
C150   H385    1.086   .     S
C150   H386    1.088   .     S
C151   H387    1.171   .     S
C151   H388    1.169   .     S
C151   H389    1.171   .     S
C152   H390    1.090   .     S
C152   H391    1.088   .     S
C152   H392    1.062   .     S
C153   H393    1.042   .     S
C153   H394    1.114   .     S
C153   H395    1.130   .     S
C153   Si16    1.819   1_556 S
C156   H396    1.100   .     S
C156   H397    1.085   .     S
C156   H398    1.108   .     S
C157   H399    1.069   .     S
C157   H400    1.113   .     S
C157   H401    1.136   .     S
C159   H402    1.091   .     S
C159   H403    1.143   .     S
C159   H404    1.053   .     S
O161   Si2     1.623   1_655 S
C162   H405    1.075   .     S
C162   H406    1.142   .     S
C162   H407    1.076   .     S
C163   H408    1.082   .     S
C163   H409    1.132   .     S
C163   H410    1.151   .     S
C164   H411    1.097   .     S
C164   H412    1.109   .     S
C164   H413    1.114   .     S
O165   Si6     1.613   1_655 S
C166   H414    1.123   .     S
C166   H415    1.144   .     S
C166   H416    1.130   .     S
C166   Si42    1.869   1_565 S
C167   H417    1.066   .     S
C167   H418    1.141   .     S
C167   H419    1.109   .     S
C167   Si42    1.910   1_565 S
C168   H420    1.121   .     S
C168   H421    1.168   .     S
C168   H422    1.078   .     S
C169   H423    1.096   .     S
C169   H424    1.084   .     S
C169   H425    1.112   .     S
O170   Si23    1.562   1_556 S
C171   H426    1.097   .     S
C171   H427    1.030   .     S
C171   H428    1.142   .     S
C174   H429    1.126   .     S
C174   H430    1.122   .     S
C174   H431    1.108   .     S
C175   H432    1.071   .     S
C175   H433    1.076   .     S
C175   H434    1.141   .     S
C176   H435    1.092   .     S
C176   H436    1.102   .     S
C176   H437    1.098   .     S
C182   H438    1.129   .     S
C182   H439    1.112   .     S
C182   H440    1.092   .     S
O183   Si11    1.600   1_655 S
C186   H441    1.103   .     S
C186   H442    1.137   .     S
C186   H443    1.132   .     S
C187   H444    1.115   .     S
C187   H445    1.164   .     S
C187   H446    1.095   .     S
C188   H447    1.088   .     S
C188   H448    1.088   .     S
C188   H449    1.106   .     S
C191   H450    1.116   .     S
C191   H451    1.161   .     S
C191   H452    1.118   .     S
C192   H453    1.114   .     S
C192   H454    1.092   .     S
C192   H455    1.117   .     S
O193   Si18    1.584   1_655 S
C194   H456    1.149   .     S
C194   H457    1.103   .     S
C194   H458    1.084   .     S
C196   H459    1.131   .     S
C196   H460    1.109   .     S
C196   H461    1.142   .     S
O197   Si21    1.636   1_655 S
