data_333-9-11-16-15-30-18
_audit_creation_date              2025-03-07
_audit_creation_method            'Materials Studio'
_symmetry_space_group_name_H-M    'P1'
_symmetry_Int_Tables_number       1
_symmetry_cell_setting            triclinic
loop_
_symmetry_equiv_pos_as_xyz
  x,y,z
_cell_length_a                    18.0291
_cell_length_b                    15.9365
_cell_length_c                    20.7753
_cell_angle_alpha                 100.3609
_cell_angle_beta                  99.0669
_cell_angle_gamma                 115.6943
loop_
_atom_site_label
_atom_site_type_symbol
_atom_site_fract_x
_atom_site_fract_y
_atom_site_fract_z
_atom_site_U_iso_or_equiv
_atom_site_adp_type
_atom_site_occupancy
Si1    Si   -0.04755   0.04278   0.29190   0.00000  Uiso   1.00
Si2    Si    0.27931   0.10805  -0.07553   0.00000  Uiso   1.00
Si3    Si    0.15423  -0.00126   0.45353   0.00000  Uiso   1.00
Si4    Si   -0.03563   0.21778   0.56178   0.00000  Uiso   1.00
Si5    Si    0.12210   0.15800   0.40335   0.00000  Uiso   1.00
Si6    Si    0.10025   0.08390   0.86718   0.00000  Uiso   1.00
Si7    Si    0.06121   0.45301   0.30291   0.00000  Uiso   1.00
Si8    Si    0.11558   0.32727   0.50778   0.00000  Uiso   1.00
Si9    Si    0.17444   0.49878   0.43797   0.00000  Uiso   1.00
Si10   Si    0.12153   0.28562   0.91519   0.00000  Uiso   1.00
Si11   Si   -0.11620   0.47904   0.89158   0.00000  Uiso   1.00
Si12   Si    0.18494   0.56595   0.23277   0.00000  Uiso   1.00
Si13   Si    0.03030   0.74410   0.22978   0.00000  Uiso   1.00
Si14   Si    0.18726   0.71023   0.47926   0.00000  Uiso   1.00
Si15   Si    0.02376   0.88772   0.52706   0.00000  Uiso   1.00
Si16   Si    0.15622   0.80920   0.37041   0.00000  Uiso   1.00
Si17   Si   -0.02192   0.72857   0.78121   0.00000  Uiso   1.00
Si18   Si    0.35301   0.92673   0.69945   0.00000  Uiso   1.00
Si19   Si    0.34118  -0.11262   0.18612   0.00000  Uiso   1.00
Si20   Si    0.25880   0.23189   0.32829   0.00000  Uiso   1.00
Si21   Si    0.48161  -0.01938   0.48889   0.00000  Uiso   1.00
Si22   Si    0.30496   0.15446   0.57202   0.00000  Uiso   1.00
Si23   Si    0.51434   0.19689   0.27924   0.00000  Uiso   1.00
Si24   Si    0.44669   0.29324   0.94256   0.00000  Uiso   1.00
Si25   Si    0.61372   0.67416  -0.22989   0.00000  Uiso   1.00
Si26   Si    0.64310   0.40420   0.30070   0.00000  Uiso   1.00
Si27   Si    0.23264   0.46139   0.64722   0.00000  Uiso   1.00
Si28   Si    0.29298   0.78378   0.29792   0.00000  Uiso   1.00
Si29   Si    0.27133   0.74619   0.04368   0.00000  Uiso   1.00
Si30   Si    0.57393   0.74947   0.46689   0.00000  Uiso   1.00
Si31   Si    0.37257   0.84129   0.56403   0.00000  Uiso   1.00
Si32   Si    0.46954   0.82077   0.37995   0.00000  Uiso   1.00
Si33   Si    0.71563   1.03986   0.84782   0.00000  Uiso   1.00
Si34   Si    0.70824   1.00976   0.69935   0.00000  Uiso   1.00
Si35   Si    0.50067   0.04066   0.16331   0.00000  Uiso   1.00
Si36   Si    0.80426   0.03183   0.48213   0.00000  Uiso   1.00
Si37   Si    0.94036  -0.02105   0.74575   0.00000  Uiso   1.00
Si38   Si    0.73478   0.45985  -0.21417   0.00000  Uiso   1.00
Si39   Si    0.81998   0.30367   0.35442   0.00000  Uiso   1.00
Si40   Si    0.75574   0.52744   0.44313   0.00000  Uiso   1.00
Si41   Si    0.92894   0.50659   0.34473   0.00000  Uiso   1.00
Si42   Si    0.69850   0.57289   0.69388   0.00000  Uiso   1.00
Si43   Si    0.83955   0.49190   0.56157   0.00000  Uiso   1.00
Si44   Si    0.84650   0.67668   0.15360   0.00000  Uiso   1.00
Si45   Si    0.51181   0.74921   0.25122   0.00000  Uiso   1.00
Si46   Si    0.83393   0.79369   0.05897   0.00000  Uiso   1.00
Si47   Si    0.92066   0.68376   0.43012   0.00000  Uiso   1.00
Si48   Si    0.73640   0.90553   0.57675   0.00000  Uiso   1.00
Si49   Si    0.85848   0.68475   0.64593   0.00000  Uiso   1.00
Si50   Si    0.37732   0.74465   0.94586   0.00000  Uiso   1.00
Si51   Si    0.88466   0.85964   0.59511   0.00000  Uiso   1.00
C52    C     0.00489   0.06175   0.22484   0.00000  Uiso   1.00
C53    C     0.86708   0.07938   0.27476   0.00000  Uiso   1.00
C54    C     0.90388  -0.08419   0.28909   0.00000  Uiso   1.00
C55    C     0.30812   0.00656  -0.09093   0.00000  Uiso   1.00
C56    C     0.26719   0.13372   0.01521   0.00000  Uiso   1.00
C57    C     0.01118   0.14447   0.59823   0.00000  Uiso   1.00
C58    C     0.95704   0.29732   0.63503   0.00000  Uiso   1.00
O59    O     0.02177   0.10798   0.36300   0.00000  Uiso   1.00
O60    O     0.14831   0.07666   0.41653   0.00000  Uiso   1.00
O61    O     0.18709   0.07935   0.87630   0.00000  Uiso   1.00
C62    C     1.05048   0.04529   0.93438   0.00000  Uiso   1.00
C63    C     0.99248   0.33060   0.23290   0.00000  Uiso   1.00
O64    O     0.02196   0.27772   0.51668   0.00000  Uiso   1.00
O65    O     0.13872   0.24119   0.46936   0.00000  Uiso   1.00
O66    O     0.13238   0.45230   0.35927   0.00000  Uiso   1.00
O67    O     0.12960   0.41585   0.47556   0.00000  Uiso   1.00
C68    C     0.28869   0.52899   0.45403   0.00000  Uiso   1.00
O69    O     0.11363   0.18964   0.87112   0.00000  Uiso   1.00
C70    C     0.14548   0.36970   0.86109   0.00000  Uiso   1.00
C71    C     0.02110   0.26190   0.94325   0.00000  Uiso   1.00
C72    C     0.21463   0.33585   0.98898   0.00000  Uiso   1.00
C73    C    -0.03426   0.59098   0.95916   0.00000  Uiso   1.00
C74    C    -0.07162   0.40035   0.85261   0.00000  Uiso   1.00
C75    C     0.80564   0.41001   0.93670   0.00000  Uiso   1.00
O76    O     0.11144   0.52983   0.26950   0.00000  Uiso   1.00
C77    C     0.26925   0.52814   0.26113   0.00000  Uiso   1.00
C78    C     0.13922   0.50544   0.14185   0.00000  Uiso   1.00
C79    C     0.05951   0.68479   0.15735   0.00000  Uiso   1.00
C80    C     1.08022   0.87295   0.22189   0.00000  Uiso   1.00
C81    C     0.15049   0.72594   0.55529   0.00000  Uiso   1.00
O82    O     0.16053   0.59288   0.45619   0.00000  Uiso   1.00
O83    O     0.07084   0.95400   0.47965   0.00000  Uiso   1.00
O84    O     0.07512   0.75384   0.30608   0.00000  Uiso   1.00
O85    O     0.14364   0.74326   0.42228   0.00000  Uiso   1.00
O86    O     0.16264   0.91253   0.40326   0.00000  Uiso   1.00
C87    C    -0.02219   0.60637   0.75958   0.00000  Uiso   1.00
C88    C     0.09638   0.82442   0.80195   0.00000  Uiso   1.00
C89    C     0.10211   0.92447   0.60992   0.00000  Uiso   1.00
C90    C     0.34400   0.82551   0.73568   0.00000  Uiso   1.00
C91    C     0.45595   1.03887   0.74385   0.00000  Uiso   1.00
C92    C     0.27134   0.96434   0.70983   0.00000  Uiso   1.00
C93    C     0.26910  -0.05606   0.17148   0.00000  Uiso   1.00
C94    C     0.22442   0.24020   0.23958   0.00000  Uiso   1.00
C95    C     0.35841   0.34561   0.38199   0.00000  Uiso   1.00
O96    O     0.17794   0.21469   0.35957   0.00000  Uiso   1.00
C97    C     0.57614   0.10243   0.53789   0.00000  Uiso   1.00
O98    O     0.24171   0.05636   0.51380   0.00000  Uiso   1.00
C99    C     0.39590   0.14359   0.62291   0.00000  Uiso   1.00
C100   C     0.24996   0.19205   0.62919   0.00000  Uiso   1.00
C101   C     0.27660   0.12656   0.32483   0.00000  Uiso   1.00
C102   C     0.43167   0.22407   0.23539   0.00000  Uiso   1.00
C103   C     0.39940   0.00370   0.44952   0.00000  Uiso   1.00
C104   C     0.48291   0.13893   0.34810   0.00000  Uiso   1.00
C105   C     0.48306   0.33732   1.03873   0.00000  Uiso   1.00
C106   C     0.45272   0.39337   0.90622   0.00000  Uiso   1.00
C107   C     0.52454   0.25020   0.92246   0.00000  Uiso   1.00
O108   O     0.35165   0.20327   0.91625   0.00000  Uiso   1.00
C109   C     0.52603   0.56879  -0.20891   0.00000  Uiso   1.00
C110   C     0.67342   0.78773  -0.16476   0.00000  Uiso   1.00
C111   C     0.56172   0.70802   0.70201   0.00000  Uiso   1.00
C112   C     0.35133   0.24381   0.52501   0.00000  Uiso   1.00
C113   C     0.57627   0.46709   0.29273   0.00000  Uiso   1.00
O114   O     0.59248   0.30372   0.31287   0.00000  Uiso   1.00
C115   C     0.66816   0.38540   0.22011   0.00000  Uiso   1.00
O116   O     0.18060   0.37280   0.58046   0.00000  Uiso   1.00
C117   C     0.20255   0.40835   0.71763   0.00000  Uiso   1.00
C118   C     0.20229   0.55435   0.64308   0.00000  Uiso   1.00
O119   O     0.23193   0.68085   0.24547   0.00000  Uiso   1.00
O120   O     0.33437   0.86096   0.25658   0.00000  Uiso   1.00
O121   O     0.24048   0.82435   0.34078   0.00000  Uiso   1.00
C122   C     0.19512   0.61323   0.01822   0.00000  Uiso   1.00
O123   O     0.29956   0.78962   0.12433   0.00000  Uiso   1.00
C124   C     0.20910   0.79690   1.00032   0.00000  Uiso   1.00
C125   C     0.34747   0.50559   0.65290   0.00000  Uiso   1.00
C126   C     0.53301   0.64008   0.49922   0.00000  Uiso   1.00
C127   C     0.63389   0.74234   0.40393   0.00000  Uiso   1.00
O128   O     0.29010   0.77494   0.50013   0.00000  Uiso   1.00
O129   O     0.44675   0.91533   0.53993   0.00000  Uiso   1.00
O130   O     0.35146   0.89963   0.62343   0.00000  Uiso   1.00
O131   O     0.36655   0.78058   0.34999   0.00000  Uiso   1.00
O132   O     0.49544   0.76190   0.42770   0.00000  Uiso   1.00
O133   O     0.50455   0.92828   0.42740   0.00000  Uiso   1.00
C134   C     0.60476   0.96634   0.85962   0.00000  Uiso   1.00
C135   C     0.79801   1.04123   0.91504   0.00000  Uiso   1.00
C136   C     0.40743   0.75296   0.58309   0.00000  Uiso   1.00
C137   C     0.59567   0.95761   0.66029   0.00000  Uiso   1.00
O138   O     0.72334   1.00431   0.77648   0.00000  Uiso   1.00
C139   C     0.76385   1.13960   0.69904   0.00000  Uiso   1.00
O140   O     0.43909  -0.04445   0.18741   0.00000  Uiso   1.00
C141   C     0.58309   0.01026   0.13818   0.00000  Uiso   1.00
C142   C     0.44512   0.05584   0.08085   0.00000  Uiso   1.00
O143   O     0.54057   0.13950   0.22624   0.00000  Uiso   1.00
C144   C     0.71111   0.02376   0.43088   0.00000  Uiso   1.00
O145   O     0.87482   0.14264   0.51243   0.00000  Uiso   1.00
C146   C     0.84565   0.95874   0.44001   0.00000  Uiso   1.00
C147   C     0.93631   0.09316   0.75822   0.00000  Uiso   1.00
O148   O     1.03124   0.01130   0.79707   0.00000  Uiso   1.00
O149   O     0.82918   0.50460   0.83505   0.00000  Uiso   1.00
C150   C     0.69055   0.32544  -0.25515   0.00000  Uiso   1.00
C151   C     0.73218   0.26229   0.40036   0.00000  Uiso   1.00
C152   C     0.77300   0.24175   0.26748   0.00000  Uiso   1.00
C153   C     0.90951   0.29088   0.39920   0.00000  Uiso   1.00
O154   O     0.72338   0.47105   0.36386   0.00000  Uiso   1.00
C155   C     0.66821   0.53362   0.47217   0.00000  Uiso   1.00
O156   O     1.01004   0.49360   0.34368   0.00000  Uiso   1.00
C157   C     0.88505   0.50773   0.25651   0.00000  Uiso   1.00
O158   O     0.85292   0.41344   0.35889   0.00000  Uiso   1.00
C159   C     0.59268   0.48375   0.62696   0.00000  Uiso   1.00
O160   O     0.73939   0.51824   0.73235   0.00000  Uiso   1.00
O161   O     0.67863   0.63981   0.74617   0.00000  Uiso   1.00
C162   C     0.93071   0.46771   0.56015   0.00000  Uiso   1.00
O163   O     0.78911   0.47433   0.48870   0.00000  Uiso   1.00
C164   C     0.77252   0.40229   0.59889   0.00000  Uiso   1.00
C165   C     0.75563   0.66472   0.18916   0.00000  Uiso   1.00
C166   C     0.66900   0.47930  -0.15940   0.00000  Uiso   1.00
C167   C     0.80956   0.55306   0.09319   0.00000  Uiso   1.00
O168   O     0.92632   0.69964   0.21159   0.00000  Uiso   1.00
C169   C     0.48583   0.62642   0.26043   0.00000  Uiso   1.00
C170   C     0.62082   0.80844   0.23956   0.00000  Uiso   1.00
C171   C     0.43633   0.73507   0.17054   0.00000  Uiso   1.00
O172   O     0.50560   0.81714   0.31527   0.00000  Uiso   1.00
C173   C     0.92780   0.73407   0.85257   0.00000  Uiso   1.00
C174   C     0.75429   0.69170   0.98433   0.00000  Uiso   1.00
O175   O     0.86798   0.75938   0.11803   0.00000  Uiso   1.00
C176   C     0.92886   0.87250   0.02761   0.00000  Uiso   1.00
O177   O     0.83677   0.62979   0.45496   0.00000  Uiso   1.00
O178   O     0.94865   0.60199   0.40045   0.00000  Uiso   1.00
C179   C     0.88473   0.72435   0.36142   0.00000  Uiso   1.00
O180   O     0.99708   0.77749   0.48566   0.00000  Uiso   1.00
O181   O     0.63951   0.83660   0.52928   0.00000  Uiso   1.00
O182   O     0.77761   0.99642   0.54471   0.00000  Uiso   1.00
O183   O     0.74210   0.94727   0.65473   0.00000  Uiso   1.00
O184   O     0.76365   0.64243   0.65834   0.00000  Uiso   1.00
O185   O     0.87221   0.59936   0.60848   0.00000  Uiso   1.00
O186   O     0.92881   0.73924   0.71631   0.00000  Uiso   1.00
C187   C     0.73098   1.16275   0.86137   0.00000  Uiso   1.00
C188   C     0.43940   0.86007   0.92849   0.00000  Uiso   1.00
C189   C     0.27620   0.66698   0.87533   0.00000  Uiso   1.00
C190   C     0.77676   0.86254   1.08845   0.00000  Uiso   1.00
C191   C     0.43333   0.67134   0.95471   0.00000  Uiso   1.00
C192   C     0.85610   0.89311   0.77459   0.00000  Uiso   1.00
O193   O     0.35295   0.76446   1.01619   0.00000  Uiso   1.00
O194   O     0.93974   0.89307   0.54249   0.00000  Uiso   1.00
O195   O     0.79310   0.85137   0.57183   0.00000  Uiso   1.00
O196   O     0.87123   0.75787   0.59979   0.00000  Uiso   1.00
O197   O     0.93861   0.93756   0.66844   0.00000  Uiso   1.00
H198   H    -0.03882   0.01327   0.17506   0.00000  Uiso   1.00
H199   H     0.06424   0.05534   0.24371   0.00000  Uiso   1.00
H200   H     0.02620   0.13731   0.22249   0.00000  Uiso   1.00
H201   H     0.82201   0.06271   0.30716   0.00000  Uiso   1.00
H202   H     0.82488   0.04136   0.22018   0.00000  Uiso   1.00
H203   H     0.89416   0.15094   0.27298   0.00000  Uiso   1.00
H204   H     0.92440  -0.12249   0.25541   0.00000  Uiso   1.00
H205   H     0.83561  -0.12151   0.26826   0.00000  Uiso   1.00
H206   H     0.92349  -0.08668   0.34182   0.00000  Uiso   1.00
H207   H     0.31599  -0.01085  -0.14469   0.00000  Uiso   1.00
H208   H     0.26197  -0.06250  -0.08671   0.00000  Uiso   1.00
H209   H     0.37001   0.03494  -0.04800   0.00000  Uiso   1.00
H210   H     0.22017   0.06536   0.02225   0.00000  Uiso   1.00
H211   H     0.24432   0.18614   0.02310   0.00000  Uiso   1.00
H212   H     0.33052   0.17536   0.05325   0.00000  Uiso   1.00
H213   H     0.03089   0.10880   0.55797   0.00000  Uiso   1.00
H214   H    -0.03578   0.09334   0.62014   0.00000  Uiso   1.00
H215   H     0.06670   0.19105   0.64009   0.00000  Uiso   1.00
H216   H     1.01181   0.36452   0.66150   0.00000  Uiso   1.00
H217   H     0.94276   0.25257   0.67291   0.00000  Uiso   1.00
H218   H     0.90027   0.31155   0.61864   0.00000  Uiso   1.00
H219   H     1.08229   0.10841   0.98323   0.00000  Uiso   1.00
H220   H     1.06790  -0.00910   0.94983   0.00000  Uiso   1.00
H221   H     0.98104   0.02049   0.92532   0.00000  Uiso   1.00
H222   H     0.93493   0.28753   0.24812   0.00000  Uiso   1.00
H223   H     1.03361   0.29831   0.22413   0.00000  Uiso   1.00
H224   H     0.96911   0.33812   0.18331   0.00000  Uiso   1.00
H225   H     0.31407   0.52816   0.50740   0.00000  Uiso   1.00
H226   H     0.33094   0.59592   0.44283   0.00000  Uiso   1.00
H227   H     0.28790   0.46556   0.42149   0.00000  Uiso   1.00
H228   H     0.15965   0.44423   0.89209   0.00000  Uiso   1.00
H229   H     0.09409   0.34410   0.81202   0.00000  Uiso   1.00
H230   H     0.20688   0.37475   0.84942   0.00000  Uiso   1.00
H231   H     0.02801   0.33121   0.96962   0.00000  Uiso   1.00
H232   H     0.01085   0.20757   0.97228   0.00000  Uiso   1.00
H233   H    -0.03566   0.22923   0.89663   0.00000  Uiso   1.00
H234   H     0.21135   0.30787   1.03196   0.00000  Uiso   1.00
H235   H     0.23278   0.41222   1.00970   0.00000  Uiso   1.00
H236   H     0.26989   0.33132   0.97255   0.00000  Uiso   1.00
H237   H    -0.05996   0.64039   0.98053   0.00000  Uiso   1.00
H238   H     0.01885   0.63570   0.94103   0.00000  Uiso   1.00
H239   H    -0.01116   0.56348   0.99857   0.00000  Uiso   1.00
H240   H    -0.11904   0.34089   0.80990   0.00000  Uiso   1.00
H241   H    -0.05502   0.36301   0.88787   0.00000  Uiso   1.00
H242   H    -0.00971   0.44113   0.83856   0.00000  Uiso   1.00
H243   H     0.74801   0.34468   0.90141   0.00000  Uiso   1.00
H244   H     0.79298   0.46325   0.96160   0.00000  Uiso   1.00
H245   H     0.84500   0.40030   0.97975   0.00000  Uiso   1.00
H246   H     0.29707   0.51483   0.21751   0.00000  Uiso   1.00
H247   H     0.24959   0.46722   0.28029   0.00000  Uiso   1.00
H248   H     0.32109   0.58657   0.30393   0.00000  Uiso   1.00
H249   H     0.19367   0.51646   0.11703   0.00000  Uiso   1.00
H250   H     0.10175   0.53624   0.11660   0.00000  Uiso   1.00
H251   H     0.09400   0.43272   0.13445   0.00000  Uiso   1.00
H252   H     0.12714   0.71343   0.16859   0.00000  Uiso   1.00
H253   H     0.03015   0.69251   0.11005   0.00000  Uiso   1.00
H254   H     0.04100   0.61418   0.16527   0.00000  Uiso   1.00
H255   H     1.06119   0.92541   0.25177   0.00000  Uiso   1.00
H256   H     1.07224   0.87036   0.17128   0.00000  Uiso   1.00
H257   H     1.14969   0.90286   0.24647   0.00000  Uiso   1.00
H258   H     0.08033   0.69912   0.54200   0.00000  Uiso   1.00
H259   H     0.17592   0.80272   0.57390   0.00000  Uiso   1.00
H260   H     0.17619   0.69752   0.59414   0.00000  Uiso   1.00
H261   H    -0.09028   0.54636   0.74789   0.00000  Uiso   1.00
H262   H     0.01561   0.59607   0.79802   0.00000  Uiso   1.00
H263   H    -0.00458   0.59156   0.71406   0.00000  Uiso   1.00
H264   H     0.11869   0.80667   0.75604   0.00000  Uiso   1.00
H265   H     0.12277   0.81647   0.84834   0.00000  Uiso   1.00
H266   H     0.10341   0.89832   0.80552   0.00000  Uiso   1.00
H267   H     0.16365   0.94242   0.59817   0.00000  Uiso   1.00
H268   H     0.07749   0.86468   0.63674   0.00000  Uiso   1.00
H269   H     0.11030   0.99470   0.64064   0.00000  Uiso   1.00
H270   H     0.40072   0.81763   0.73858   0.00000  Uiso   1.00
H271   H     0.28540   0.76119   0.70781   0.00000  Uiso   1.00
H272   H     0.33800   0.84494   0.78699   0.00000  Uiso   1.00
H273   H     0.50203   1.00993   0.75574   0.00000  Uiso   1.00
H274   H     0.45087   1.07622   0.79238   0.00000  Uiso   1.00
H275   H     0.47768   1.08724   0.71031   0.00000  Uiso   1.00
H276   H     0.27595   1.01560   0.68052   0.00000  Uiso   1.00
H277   H     0.27623   1.00552   0.75709   0.00000  Uiso   1.00
H278   H     0.20751   0.89750   0.69167   0.00000  Uiso   1.00
H279   H     0.27912  -0.02476   0.12692   0.00000  Uiso   1.00
H280   H     0.28403   0.00993   0.21271   0.00000  Uiso   1.00
H281   H     0.19948  -0.11111   0.15075   0.00000  Uiso   1.00
H282   H     0.17533   0.16623   0.21374   0.00000  Uiso   1.00
H283   H     0.27740   0.26644   0.21827   0.00000  Uiso   1.00
H284   H     0.19221   0.28240   0.24281   0.00000  Uiso   1.00
H285   H     0.41382   0.32744   0.38609   0.00000  Uiso   1.00
H286   H     0.34759   0.36675   0.43401   0.00000  Uiso   1.00
H287   H     0.37018   0.40345   0.35940   0.00000  Uiso   1.00
H288   H     0.56108   0.13572   0.58343   0.00000  Uiso   1.00
H289   H     0.59362   0.15852   0.51283   0.00000  Uiso   1.00
H290   H     0.62958   0.09274   0.55797   0.00000  Uiso   1.00
H291   H     0.45015   0.20964   0.61834   0.00000  Uiso   1.00
H292   H     0.39658   0.07630   0.59329   0.00000  Uiso   1.00
H293   H     0.38935   0.14905   0.67632   0.00000  Uiso   1.00
H294   H     0.19733   0.19196   0.59219   0.00000  Uiso   1.00
H295   H     0.30109   0.26227   0.66781   0.00000  Uiso   1.00
H296   H     0.22145   0.13664   0.65457   0.00000  Uiso   1.00
H297   H     0.22137   0.06428   0.28984   0.00000  Uiso   1.00
H298   H     0.29393   0.11917   0.37195   0.00000  Uiso   1.00
H299   H     0.33200   0.13921   0.30231   0.00000  Uiso   1.00
H300   H     0.36822   0.16541   0.20391   0.00000  Uiso   1.00
H301   H     0.46017   0.26899   0.20252   0.00000  Uiso   1.00
H302   H     0.42411   0.27233   0.27832   0.00000  Uiso   1.00
H303   H     0.34092  -0.02792   0.46605   0.00000  Uiso   1.00
H304   H     0.38246  -0.01654   0.39563   0.00000  Uiso   1.00
H305   H     0.42368   0.08577   0.46752   0.00000  Uiso   1.00
H306   H     0.41623   0.07410   0.32383   0.00000  Uiso   1.00
H307   H     0.47915   0.19603   0.38697   0.00000  Uiso   1.00
H308   H     0.52965   0.11766   0.37115   0.00000  Uiso   1.00
H309   H     0.53732   0.41032   1.05284   0.00000  Uiso   1.00
H310   H     0.49525   0.28456   1.05905   0.00000  Uiso   1.00
H311   H     0.43085   0.34435   1.05683   0.00000  Uiso   1.00
H312   H     0.39366   0.37880   0.87360   0.00000  Uiso   1.00
H313   H     0.50162   0.40534   0.87472   0.00000  Uiso   1.00
H314   H     0.47569   0.45820   0.95198   0.00000  Uiso   1.00
H315   H     0.51289   0.18857   0.94562   0.00000  Uiso   1.00
H316   H     0.59074   0.31135   0.94354   0.00000  Uiso   1.00
H317   H     0.51629   0.22990   0.86527   0.00000  Uiso   1.00
H318   H     0.54784   0.54989  -0.16428   0.00000  Uiso   1.00
H319   H     0.50511   0.50735  -0.25873   0.00000  Uiso   1.00
H320   H     0.47133   0.58257  -0.19966   0.00000  Uiso   1.00
H321   H     0.73404   0.79372  -0.15255   0.00000  Uiso   1.00
H322   H     0.64140   0.78607  -0.12167   0.00000  Uiso   1.00
H323   H     0.67785   0.84481  -0.18536   0.00000  Uiso   1.00
H324   H     0.61513   0.76432   0.68278   0.00000  Uiso   1.00
H325   H     0.52640   0.74345   0.72619   0.00000  Uiso   1.00
H326   H     0.51882   0.64846   0.65645   0.00000  Uiso   1.00
H327   H     0.30281   0.23671   0.47994   0.00000  Uiso   1.00
H328   H     0.40154   0.23505   0.50691   0.00000  Uiso   1.00
H329   H     0.37906   0.32115   0.56054   0.00000  Uiso   1.00
H330   H     0.52070   0.42919   0.30887   0.00000  Uiso   1.00
H331   H     0.55165   0.46728   0.24219   0.00000  Uiso   1.00
H332   H     0.62927   0.54455   0.32343   0.00000  Uiso   1.00
H333   H     0.60975   0.32776   0.18569   0.00000  Uiso   1.00
H334   H     0.71596   0.36028   0.22317   0.00000  Uiso   1.00
H335   H     0.69060   0.45528   0.20242   0.00000  Uiso   1.00
H336   H     0.22590   0.35568   0.71886   0.00000  Uiso   1.00
H337   H     0.13150   0.36464   0.70777   0.00000  Uiso   1.00
H338   H     0.22934   0.46568   0.76650   0.00000  Uiso   1.00
H339   H     0.22243   0.59673   0.60707   0.00000  Uiso   1.00
H340   H     0.22430   0.60270   0.69382   0.00000  Uiso   1.00
H341   H     0.13090   0.52106   0.63356   0.00000  Uiso   1.00
H342   H     0.17256   0.58941  -0.03819   0.00000  Uiso   1.00
H343   H     0.13806   0.60128   0.03718   0.00000  Uiso   1.00
H344   H     0.22939   0.57610   0.03346   0.00000  Uiso   1.00
H345   H     0.16715   0.74479   0.95391   0.00000  Uiso   1.00
H346   H     0.24655   0.85342   0.98241   0.00000  Uiso   1.00
H347   H     0.17759   0.82244   1.03449   0.00000  Uiso   1.00
H348   H     0.36701   0.45890   0.67858   0.00000  Uiso   1.00
H349   H     0.38065   0.58706   0.67867   0.00000  Uiso   1.00
H350   H     0.35615   0.49974   0.60116   0.00000  Uiso   1.00
H351   H     0.57988   0.62384   0.52316   0.00000  Uiso   1.00
H352   H     0.49103   0.57928   0.45539   0.00000  Uiso   1.00
H353   H     0.49590   0.64688   0.53181   0.00000  Uiso   1.00
H354   H     0.64314   0.79794   0.37541   0.00000  Uiso   1.00
H355   H     0.60507   0.66343   0.37511   0.00000  Uiso   1.00
H356   H     0.69699   0.75587   0.42619   0.00000  Uiso   1.00
H357   H     0.57552   1.01457   0.86258   0.00000  Uiso   1.00
H358   H     0.61547   0.94456   0.90728   0.00000  Uiso   1.00
H359   H     0.56845   0.89785   0.81388   0.00000  Uiso   1.00
H360   H     0.86304   1.08790   0.90675   0.00000  Uiso   1.00
H361   H     0.79110   0.96835   0.90509   0.00000  Uiso   1.00
H362   H     0.80089   1.06836   0.96913   0.00000  Uiso   1.00
H363   H     0.45807   0.75916   0.55670   0.00000  Uiso   1.00
H364   H     0.34932   0.68526   0.56584   0.00000  Uiso   1.00
H365   H     0.43622   0.77454   0.63861   0.00000  Uiso   1.00
H366   H     0.58084   1.01526   0.65011   0.00000  Uiso   1.00
H367   H     0.55398   0.91736   0.69133   0.00000  Uiso   1.00
H368   H     0.58653   0.91181   0.60985   0.00000  Uiso   1.00
H369   H     0.75789   1.14609   0.64417   0.00000  Uiso   1.00
H370   H     0.83158   1.18067   0.72742   0.00000  Uiso   1.00
H371   H     0.73044   1.17655   0.71654   0.00000  Uiso   1.00
H372   H     0.63291   0.07349   0.12771   0.00000  Uiso   1.00
H373   H     0.55022  -0.05773   0.09890   0.00000  Uiso   1.00
H374   H     0.61447   0.00407   0.18418   0.00000  Uiso   1.00
H375   H     0.41151  -0.01434   0.04738   0.00000  Uiso   1.00
H376   H     0.49303   0.10633   0.05836   0.00000  Uiso   1.00
H377   H     0.39754   0.08200   0.08119   0.00000  Uiso   1.00
H378   H     0.68818   0.04907   0.46981   0.00000  Uiso   1.00
H379   H     0.66715  -0.05329   0.40070   0.00000  Uiso   1.00
H380   H     0.73814   0.07639   0.40521   0.00000  Uiso   1.00
H381   H     0.81863   0.94848   0.38807   0.00000  Uiso   1.00
H382   H     0.82024   0.88549   0.44930   0.00000  Uiso   1.00
H383   H     0.92120   1.00315   0.46052   0.00000  Uiso   1.00
H384   H     0.90676   0.10629   0.79679   0.00000  Uiso   1.00
H385   H     0.90224   0.09709   0.70770   0.00000  Uiso   1.00
H386   H     1.00119   0.15549   0.77726   0.00000  Uiso   1.00
H387   H     0.61967   0.29323  -0.26681   0.00000  Uiso   1.00
H388   H     0.71474   0.29505  -0.21680   0.00000  Uiso   1.00
H389   H     0.70442   0.30322  -0.30414   0.00000  Uiso   1.00
H390   H     0.68478   0.19101   0.37435   0.00000  Uiso   1.00
H391   H     0.70684   0.31500   0.39974   0.00000  Uiso   1.00
H392   H     0.76272   0.27200   0.45429   0.00000  Uiso   1.00
H393   H     0.76163   0.16791   0.25733   0.00000  Uiso   1.00
H394   H     0.80906   0.28368   0.23539   0.00000  Uiso   1.00
H395   H     0.70901   0.23425   0.24911   0.00000  Uiso   1.00
H396   H     0.87875   0.22628   0.41873   0.00000  Uiso   1.00
H397   H     0.94321   0.36155   0.43722   0.00000  Uiso   1.00
H398   H     0.95897   0.29221   0.37482   0.00000  Uiso   1.00
H399   H     0.64197   0.57853   0.45280   0.00000  Uiso   1.00
H400   H     0.69766   0.56980   0.52940   0.00000  Uiso   1.00
H401   H     0.61238   0.45184   0.45867   0.00000  Uiso   1.00
H402   H     0.84677   0.43603   0.22060   0.00000  Uiso   1.00
H403   H     0.94200   0.55078   0.24118   0.00000  Uiso   1.00
H404   H     0.84493   0.54533   0.25742   0.00000  Uiso   1.00
H405   H     0.55689   0.51933   0.60029   0.00000  Uiso   1.00
H406   H     0.54480   0.43259   0.64740   0.00000  Uiso   1.00
H407   H     0.60801   0.43902   0.58673   0.00000  Uiso   1.00
H408   H     0.90630   0.38968   0.53790   0.00000  Uiso   1.00
H409   H     0.97521   0.49314   0.61218   0.00000  Uiso   1.00
H410   H     0.97302   0.50564   0.53083   0.00000  Uiso   1.00
H411   H     0.72005   0.40771   0.61139   0.00000  Uiso   1.00
H412   H     0.81230   0.41015   0.64875   0.00000  Uiso   1.00
H413   H     0.75346   0.32778   0.56658   0.00000  Uiso   1.00
H414   H     0.78292   0.72853   0.23665   0.00000  Uiso   1.00
H415   H     0.71960   0.59729   0.20174   0.00000  Uiso   1.00
H416   H     0.71101   0.67927   0.15079   0.00000  Uiso   1.00
H417   H     0.66582   0.44591  -0.11695   0.00000  Uiso   1.00
H418   H     0.60302   0.44381  -0.19354   0.00000  Uiso   1.00
H419   H     0.69273   0.55728  -0.13803   0.00000  Uiso   1.00
H420   H     0.85777   0.55026   0.07284   0.00000  Uiso   1.00
H421   H     0.75886   0.53509   0.04895   0.00000  Uiso   1.00
H422   H     0.78745   0.49717   0.12113   0.00000  Uiso   1.00
H423   H     0.43829   0.56675   0.21864   0.00000  Uiso   1.00
H424   H     0.47178   0.62850   0.30909   0.00000  Uiso   1.00
H425   H     0.54420   0.62351   0.26632   0.00000  Uiso   1.00
H426   H     0.61792   0.75956   0.19132   0.00000  Uiso   1.00
H427   H     0.67357   0.82114   0.28112   0.00000  Uiso   1.00
H428   H     0.63878   0.87973   0.23045   0.00000  Uiso   1.00
H429   H     0.44785   0.69171   0.13149   0.00000  Uiso   1.00
H430   H     0.45873   0.80453   0.15733   0.00000  Uiso   1.00
H431   H     0.37402   0.70178   0.17833   0.00000  Uiso   1.00
H432   H     0.93926   0.69611   0.88951   0.00000  Uiso   1.00
H433   H     0.85934   0.70593   0.83303   0.00000  Uiso   1.00
H434   H     0.95478   0.81207   0.88317   0.00000  Uiso   1.00
H435   H     0.78489   0.64420   0.96447   0.00000  Uiso   1.00
H436   H     0.72830   0.71443   0.94320   0.00000  Uiso   1.00
H437   H     0.70191   0.65258   1.00610   0.00000  Uiso   1.00
H438   H     0.97283   0.83917   0.02468   0.00000  Uiso   1.00
H439   H     0.96960   0.93833   0.06798   0.00000  Uiso   1.00
H440   H     0.90316   0.88780  -0.01765   0.00000  Uiso   1.00
H441   H     0.94132   0.77947   0.34515   0.00000  Uiso   1.00
H442   H     0.84765   0.75837   0.38057   0.00000  Uiso   1.00
H443   H     0.83873   0.65871   0.31516   0.00000  Uiso   1.00
H444   H     0.67298   1.15998   0.83127   0.00000  Uiso   1.00
H445   H     0.78863   1.21012   0.84640   0.00000  Uiso   1.00
H446   H     0.73913   1.19114   0.91512   0.00000  Uiso   1.00
H447   H     0.50130   0.90634   0.96998   0.00000  Uiso   1.00
H448   H     0.40228   0.90028   0.92223   0.00000  Uiso   1.00
H449   H     0.45351   0.84098   0.87944   0.00000  Uiso   1.00
H450   H     0.23408   0.69775   0.86856   0.00000  Uiso   1.00
H451   H     0.23730   0.59076   0.88223   0.00000  Uiso   1.00
H452   H     0.28946   0.65828   0.82469   0.00000  Uiso   1.00
H453   H     0.81013   0.90844   1.14452   0.00000  Uiso   1.00
H454   H     0.71035   0.80227   1.08194   0.00000  Uiso   1.00
H455   H     0.77224   0.90495   1.05466   0.00000  Uiso   1.00
H456   H     0.43181   0.63145   0.90565   0.00000  Uiso   1.00
H457   H     0.40609   0.61948   0.98353   0.00000  Uiso   1.00
H458   H     0.49943   0.72459   0.98005   0.00000  Uiso   1.00
H459   H     0.86528   0.91777   0.83156   0.00000  Uiso   1.00
H460   H     0.85125   0.82166   0.75536   0.00000  Uiso   1.00
H461   H     0.79642   0.89296   0.74819   0.00000  Uiso   1.00
loop_
_geom_bond_atom_site_label_1
_geom_bond_atom_site_label_2
_geom_bond_distance
_geom_bond_site_symmetry_2
_ccdc_geom_bond_type
Si1    C52     1.801   .     S
Si1    O59     1.601   .     S
Si1    C53     1.875   1_455 S
Si1    C54     1.808   1_455 S
Si2    C55     1.893   .     S
Si2    C56     1.923   .     S
Si2    O61     1.621   1_554 S
Si2    O108    1.575   1_554 S
Si3    O60     1.605   .     S
Si3    O98     1.614   .     S
Si3    O83     1.591   1_545 S
Si3    O86     1.648   1_545 S
Si4    C57     1.903   .     S
Si4    O64     1.624   .     S
Si4    C58     1.859   1_455 S
Si4    O145    1.566   1_455 S
Si5    O59     1.625   .     S
Si5    O60     1.611   .     S
Si5    O65     1.613   .     S
Si5    O96     1.566   .     S
Si6    O61     1.582   .     S
Si6    O69     1.580   .     S
Si6    C62     1.832   1_455 S
Si6    O148    1.607   1_455 S
Si7    O66     1.600   .     S
Si7    O76     1.531   .     S
Si7    C63     1.942   1_455 S
Si7    O156    1.598   1_455 S
Si8    O64     1.582   .     S
Si8    O65     1.703   .     S
Si8    O67     1.609   .     S
Si8    O116    1.578   .     S
Si9    O66     1.576   .     S
Si9    O67     1.629   .     S
Si9    C68     1.858   .     S
Si9    O82     1.615   .     S
Si10   O69     1.570   .     S
Si10   C70     1.854   .     S
Si10   C71     1.892   .     S
Si10   C72     1.841   .     S
Si11   C73     1.870   .     S
Si11   C74     1.894   .     S
Si11   C75     1.875   1_455 S
Si11   O149    1.634   1_455 S
Si12   O76     1.576   .     S
Si12   C77     1.913   .     S
Si12   C78     1.828   .     S
Si12   O119    1.597   .     S
Si13   C79     1.899   .     S
Si13   O84     1.609   .     S
Si13   C80     1.902   1_455 S
Si13   O168    1.639   1_455 S
Si14   C81     1.825   .     S
Si14   O82     1.668   .     S
Si14   O85     1.608   .     S
Si14   O128    1.618   .     S
Si15   O83     1.633   .     S
Si15   C89     1.859   .     S
Si15   O180    1.628   1_455 S
Si15   O194    1.631   1_455 S
Si16   O84     1.595   .     S
Si16   O85     1.611   .     S
Si16   O86     1.611   .     S
Si16   O121    1.666   .     S
Si17   C87     1.916   .     S
Si17   C88     1.928   .     S
Si17   C173    1.864   1_455 S
Si17   O186    1.572   1_455 S
Si18   C90     1.856   .     S
Si18   C91     1.866   .     S
Si18   C92     1.842   .     S
Si18   O130    1.553   .     S
Si19   C93     1.893   .     S
Si19   O140    1.615   .     S
Si19   O120    1.603   1_545 S
Si19   O123    1.613   1_545 S
Si20   C94     1.897   .     S
Si20   C95     1.890   .     S
Si20   O96     1.625   .     S
Si20   C101    1.832   .     S
Si21   C97     1.893   .     S
Si21   C103    1.789   .     S
Si21   O129    1.625   1_545 S
Si21   O133    1.606   1_545 S
Si22   O98     1.596   .     S
Si22   C99     1.898   .     S
Si22   C100    1.839   .     S
Si22   C112    1.846   .     S
Si23   C102    1.874   .     S
Si23   C104    1.870   .     S
Si23   O114    1.598   .     S
Si23   O143    1.565   .     S
Si24   C105    1.897   .     S
Si24   C106    1.854   .     S
Si24   C107    1.879   .     S
Si24   O108    1.607   .     S
Si25   C109    1.920   .     S
Si25   C110    1.799   .     S
Si25   C111    1.862   1_554 S
Si25   O161    1.599   1_554 S
Si26   C113    1.878   .     S
Si26   O114    1.553   .     S
Si26   C115    1.809   .     S
Si26   O154    1.585   .     S
Si27   O116    1.592   .     S
Si27   C117    1.856   .     S
Si27   C118    1.799   .     S
Si27   C125    1.850   .     S
Si28   O119    1.582   .     S
Si28   O120    1.610   .     S
Si28   O121    1.642   .     S
Si28   O131    1.599   .     S
Si29   C122    1.871   .     S
Si29   O123    1.598   .     S
Si29   C124    1.858   1_554 S
Si29   O193    1.590   1_554 S
Si30   C126    1.870   .     S
Si30   C127    1.842   .     S
Si30   O132    1.626   .     S
Si30   O181    1.566   .     S
Si31   O128    1.613   .     S
Si31   O129    1.577   .     S
Si31   O130    1.604   .     S
Si31   C136    1.850   .     S
Si32   O131    1.645   .     S
Si32   O132    1.628   .     S
Si32   O133    1.601   .     S
Si32   O172    1.585   .     S
Si33   C134    1.912   .     S
Si33   C135    1.861   .     S
Si33   O138    1.539   .     S
Si33   C187    1.816   .     S
Si34   C137    1.801   .     S
Si34   O138    1.607   .     S
Si34   C139    1.869   .     S
Si34   O183    1.612   .     S
Si35   O140    1.561   .     S
Si35   C141    1.869   .     S
Si35   C142    1.953   .     S
Si35   O143    1.640   .     S
Si36   C144    1.781   .     S
Si36   O145    1.591   .     S
Si36   C146    1.809   1_545 S
Si36   O182    1.570   1_545 S
Si37   C147    1.827   .     S
Si37   O148    1.614   .     S
Si37   C192    1.821   1_545 S
Si37   O197    1.613   1_545 S
Si38   C150    1.897   .     S
Si38   C166    1.848   .     S
Si38   O149    1.609   1_554 S
Si38   O160    1.562   1_554 S
Si39   C151    1.910   .     S
Si39   C152    1.762   .     S
Si39   C153    1.842   .     S
Si39   O158    1.564   .     S
Si40   O154    1.603   .     S
Si40   C155    1.811   .     S
Si40   O163    1.589   .     S
Si40   O177    1.591   .     S
Si41   O156    1.566   .     S
Si41   C157    1.885   .     S
Si41   O158    1.640   .     S
Si41   O178    1.596   .     S
Si42   C159    1.922   .     S
Si42   O160    1.601   .     S
Si42   O161    1.576   .     S
Si42   O184    1.610   .     S
Si43   C162    1.847   .     S
Si43   O163    1.546   .     S
Si43   C164    1.816   .     S
Si43   O185    1.604   .     S
Si44   C165    1.851   .     S
Si44   C167    1.900   .     S
Si44   O168    1.580   .     S
Si44   O175    1.559   .     S
Si45   C169    1.858   .     S
Si45   C170    1.854   .     S
Si45   C171    1.895   .     S
Si45   O172    1.609   .     S
Si46   O175    1.574   .     S
Si46   C176    1.927   .     S
Si46   C174    1.864   1_554 S
Si46   C190    1.892   1_554 S
Si47   O177    1.604   .     S
Si47   O178    1.647   .     S
Si47   C179    1.811   .     S
Si47   O180    1.599   .     S
Si48   O181    1.623   .     S
Si48   O182    1.632   .     S
Si48   O183    1.606   .     S
Si48   O195    1.602   .     S
Si49   O184    1.627   .     S
Si49   O185    1.578   .     S
Si49   O186    1.582   .     S
Si49   O196    1.603   .     S
Si50   C188    1.829   .     S
Si50   C189    1.885   .     S
Si50   C191    1.860   .     S
Si50   O193    1.608   .     S
Si51   O194    1.600   .     S
Si51   O195    1.585   .     S
Si51   O196    1.556   .     S
Si51   O197    1.617   .     S
C52    H198    1.102   .     S
C52    H199    1.134   .     S
C52    H200    1.107   .     S
C53    H201    1.111   .     S
C53    H202    1.146   .     S
C53    H203    1.038   .     S
C53    Si1     1.875   1_655 S
C54    H204    1.060   .     S
C54    H205    1.077   .     S
C54    H206    1.110   .     S
C54    Si1     1.808   1_655 S
C55    H207    1.148   .     S
C55    H208    1.084   .     S
C55    H209    1.161   .     S
C56    H210    1.106   .     S
C56    H211    1.080   .     S
C56    H212    1.113   .     S
C57    H213    1.117   .     S
C57    H214    1.116   .     S
C57    H215    1.076   .     S
C58    H216    1.060   .     S
C58    H217    1.141   .     S
C58    H218    1.155   .     S
C58    Si4     1.859   1_655 S
O61    Si2     1.621   1_556 S
C62    H219    1.149   .     S
C62    H220    1.121   .     S
C62    H221    1.109   .     S
C62    Si6     1.832   1_655 S
C63    H222    1.101   .     S
C63    H223    1.090   .     S
C63    H224    1.097   .     S
C63    Si7     1.942   1_655 S
C68    H225    1.136   .     S
C68    H226    1.101   .     S
C68    H227    1.103   .     S
C70    H228    1.140   .     S
C70    H229    1.135   .     S
C70    H230    1.142   .     S
C71    H231    1.085   .     S
C71    H232    1.110   .     S
C71    H233    1.140   .     S
C72    H234    1.066   .     S
C72    H235    1.093   .     S
C72    H236    1.129   .     S
C73    H237    1.135   .     S
C73    H238    1.089   .     S
C73    H239    1.103   .     S
C74    H240    1.083   .     S
C74    H241    1.106   .     S
C74    H242    1.138   .     S
C75    H243    1.117   .     S
C75    H244    1.043   .     S
C75    H245    1.128   .     S
C75    Si11    1.875   1_655 S
C77    H246    1.133   .     S
C77    H247    1.054   .     S
C77    H248    1.103   .     S
C78    H249    1.142   .     S
C78    H250    1.114   .     S
C78    H251    1.053   .     S
C79    H252    1.067   .     S
C79    H253    1.094   .     S
C79    H254    1.078   .     S
C80    H255    1.154   .     S
C80    H256    1.029   .     S
C80    H257    1.118   .     S
C80    Si13    1.902   1_655 S
C81    H258    1.112   .     S
C81    H259    1.070   .     S
C81    H260    1.126   .     S
O83    Si3     1.591   1_565 S
O86    Si3     1.648   1_565 S
C87    H261    1.134   .     S
C87    H262    1.050   .     S
C87    H263    1.063   .     S
C88    H264    1.129   .     S
C88    H265    1.060   .     S
C88    H266    1.116   .     S
C89    H267    1.099   .     S
C89    H268    1.148   .     S
C89    H269    1.119   .     S
C90    H270    1.077   .     S
C90    H271    1.075   .     S
C90    H272    1.091   .     S
C91    H273    1.128   .     S
C91    H274    1.113   .     S
C91    H275    1.118   .     S
C92    H276    1.087   .     S
C92    H277    1.045   .     S
C92    H278    1.121   .     S
C93    H279    1.131   .     S
C93    H280    1.127   .     S
C93    H281    1.127   .     S
C94    H282    1.086   .     S
C94    H283    1.066   .     S
C94    H284    1.062   .     S
C95    H285    1.150   .     S
C95    H286    1.146   .     S
C95    H287    1.064   .     S
C97    H288    1.129   .     S
C97    H289    1.070   .     S
C97    H290    1.073   .     S
C99    H291    1.116   .     S
C99    H292    1.142   .     S
C99    H293    1.126   .     S
C100   H294    1.122   .     S
C100   H295    1.138   .     S
C100   H296    1.087   .     S
C101   H297    1.077   .     S
C101   H298    1.023   .     S
C101   H299    1.124   .     S
C102   H300    1.108   .     S
C102   H301    1.100   .     S
C102   H302    1.135   .     S
C103   H303    1.095   .     S
C103   H304    1.062   .     S
C103   H305    1.148   .     S
C104   H306    1.145   .     S
C104   H307    1.136   .     S
C104   H308    1.111   .     S
C105   H309    1.094   .     S
C105   H310    1.092   .     S
C105   H311    1.108   .     S
C106   H312    1.072   .     S
C106   H313    1.150   .     S
C106   H314    1.138   .     S
C107   H315    1.124   .     S
C107   H316    1.113   .     S
C107   H317    1.141   .     S
O108   Si2     1.575   1_556 S
C109   H318    1.092   .     S
C109   H319    1.168   .     S
C109   H320    1.136   .     S
C110   H321    1.040   .     S
C110   H322    1.137   .     S
C110   H323    1.051   .     S
C111   H324    1.180   .     S
C111   H325    1.134   .     S
C111   H326    1.098   .     S
C111   Si25    1.862   1_556 S
C112   H327    1.128   .     S
C112   H328    1.085   .     S
C112   H329    1.156   .     S
C113   H330    1.065   .     S
C113   H331    1.075   .     S
C113   H332    1.160   .     S
C115   H333    1.073   .     S
C115   H334    1.095   .     S
C115   H335    1.159   .     S
C117   H336    1.092   .     S
C117   H337    1.123   .     S
C117   H338    1.108   .     S
C118   H339    1.096   .     S
C118   H340    1.083   .     S
C118   H341    1.126   .     S
O120   Si19    1.603   1_565 S
C122   H342    1.113   .     S
C122   H343    1.111   .     S
C122   H344    1.075   .     S
O123   Si19    1.613   1_565 S
C124   H345    1.062   .     S
C124   H346    1.038   .     S
C124   H347    1.103   .     S
C124   Si29    1.858   1_556 S
C125   H348    1.128   .     S
C125   H349    1.143   .     S
C125   H350    1.104   .     S
C126   H351    1.064   .     S
C126   H352    1.082   .     S
C126   H353    1.048   .     S
C127   H354    1.121   .     S
C127   H355    1.129   .     S
C127   H356    1.068   .     S
O129   Si21    1.625   1_565 S
O133   Si21    1.606   1_565 S
C134   H357    1.103   .     S
C134   H358    1.122   .     S
C134   H359    1.155   .     S
C135   H360    1.145   .     S
C135   H361    1.090   .     S
C135   H362    1.113   .     S
C136   H363    1.115   .     S
C136   H364    1.074   .     S
C136   H365    1.110   .     S
C137   H366    1.107   .     S
C137   H367    1.130   .     S
C137   H368    1.106   .     S
C139   H369    1.156   .     S
C139   H370    1.099   .     S
C139   H371    1.068   .     S
C141   H372    1.107   .     S
C141   H373    1.079   .     S
C141   H374    1.075   .     S
C142   H375    1.049   .     S
C142   H376    1.128   .     S
C142   H377    1.105   .     S
C144   H378    1.059   .     S
C144   H379    1.119   .     S
C144   H380    1.055   .     S
O145   Si4     1.566   1_655 S
C146   H381    1.063   .     S
C146   H382    1.120   .     S
C146   H383    1.188   .     S
C146   Si36    1.809   1_565 S
C147   H384    1.068   .     S
C147   H385    1.156   .     S
C147   H386    1.103   .     S
O148   Si6     1.607   1_655 S
O149   Si11    1.634   1_655 S
O149   Si38    1.609   1_556 S
C150   H387    1.115   .     S
C150   H388    1.128   .     S
C150   H389    1.119   .     S
C151   H390    1.051   .     S
C151   H391    1.118   .     S
C151   H392    1.119   .     S
C152   H393    1.077   .     S
C152   H394    1.111   .     S
C152   H395    1.103   .     S
C153   H396    1.122   .     S
C153   H397    1.094   .     S
C153   H398    1.087   .     S
C155   H399    1.111   .     S
C155   H400    1.148   .     S
C155   H401    1.197   .     S
O156   Si7     1.598   1_655 S
C157   H402    1.089   .     S
C157   H403    1.094   .     S
C157   H404    1.122   .     S
C159   H405    1.167   .     S
C159   H406    1.105   .     S
C159   H407    1.146   .     S
O160   Si38    1.562   1_556 S
O161   Si25    1.599   1_556 S
C162   H408    1.099   .     S
C162   H409    1.124   .     S
C162   H410    1.094   .     S
C164   H411    1.054   .     S
C164   H412    1.116   .     S
C164   H413    1.125   .     S
C165   H414    1.141   .     S
C165   H415    1.093   .     S
C165   H416    1.167   .     S
C166   H417    1.106   .     S
C166   H418    1.116   .     S
C166   H419    1.098   .     S
C167   H420    1.039   .     S
C167   H421    1.084   .     S
C167   H422    1.114   .     S
O168   Si13    1.639   1_655 S
C169   H423    1.074   .     S
C169   H424    1.078   .     S
C169   H425    1.062   .     S
C170   H426    1.132   .     S
C170   H427    1.096   .     S
C170   H428    1.100   .     S
C171   H429    1.075   .     S
C171   H430    1.105   .     S
C171   H431    1.068   .     S
C173   H432    1.106   .     S
C173   H433    1.089   .     S
C173   H434    1.131   .     S
C173   Si17    1.864   1_655 S
C174   H435    1.170   .     S
C174   H436    1.102   .     S
C174   H437    1.100   .     S
C174   Si46    1.864   1_556 S
C176   H438    1.133   .     S
C176   H439    1.079   .     S
C176   H440    1.096   .     S
C179   H441    1.168   .     S
C179   H442    1.104   .     S
C179   H443    1.158   .     S
O180   Si15    1.628   1_655 S
O182   Si36    1.570   1_565 S
O186   Si17    1.572   1_655 S
C187   H444    1.109   .     S
C187   H445    1.119   .     S
C187   H446    1.087   .     S
C188   H447    1.134   .     S
C188   H448    1.118   .     S
C188   H449    1.110   .     S
C189   H450    1.073   .     S
C189   H451    1.159   .     S
C189   H452    1.113   .     S
C190   H453    1.160   .     S
C190   H454    1.131   .     S
C190   H455    1.075   .     S
C190   Si46    1.892   1_556 S
C191   H456    1.089   .     S
C191   H457    1.096   .     S
C191   H458    1.087   .     S
C192   H459    1.139   .     S
C192   H460    1.097   .     S
C192   H461    1.127   .     S
C192   Si37    1.821   1_565 S
O193   Si29    1.590   1_556 S
O194   Si15    1.631   1_655 S
O197   Si37    1.613   1_565 S
