data_333-11-11-14-15-30-13
_audit_creation_date              2025-03-07
_audit_creation_method            'Materials Studio'
_symmetry_space_group_name_H-M    'P1'
_symmetry_Int_Tables_number       1
_symmetry_cell_setting            triclinic
loop_
_symmetry_equiv_pos_as_xyz
  x,y,z
_cell_length_a                    16.2966
_cell_length_b                    16.0881
_cell_length_c                    19.7452
_cell_angle_alpha                 78.8153
_cell_angle_beta                  95.9071
_cell_angle_gamma                 119.6854
loop_
_atom_site_label
_atom_site_type_symbol
_atom_site_fract_x
_atom_site_fract_y
_atom_site_fract_z
_atom_site_U_iso_or_equiv
_atom_site_adp_type
_atom_site_occupancy
Si1    Si    0.19705  -0.08004   0.12247   0.00000  Uiso   1.00
Si2    Si   -0.03700   0.05842   0.19542   0.00000  Uiso   1.00
Si3    Si   -0.09115   0.08952   0.47343   0.00000  Uiso   1.00
Si4    Si    0.15047  -0.00172   0.84487   0.00000  Uiso   1.00
Si5    Si    0.09853   0.08941   0.70783   0.00000  Uiso   1.00
Si6    Si    0.00505   0.43141   0.20190   0.00000  Uiso   1.00
Si7    Si    0.22083   0.53756   0.02649   0.00000  Uiso   1.00
Si8    Si    0.23685   0.46680   0.79694   0.00000  Uiso   1.00
Si9    Si    0.18096   0.63034   0.12879   0.00000  Uiso   1.00
Si10   Si    0.08063   0.77012   0.24691   0.00000  Uiso   1.00
Si11   Si    0.16404   0.78108   0.02901   0.00000  Uiso   1.00
Si12   Si    0.21997   0.67014   0.53140   0.00000  Uiso   1.00
Si13   Si    0.00934   0.82510   0.94151   0.00000  Uiso   1.00
Si14   Si    0.50578  -0.03946   0.09153   0.00000  Uiso   1.00
Si15   Si    0.32820   0.08869   0.19615   0.00000  Uiso   1.00
Si16   Si    0.46729   0.13755   0.01308   0.00000  Uiso   1.00
Si17   Si    0.44183  -0.02024   0.48764   0.00000  Uiso   1.00
Si18   Si    0.21733   0.08776   0.60311   0.00000  Uiso   1.00
Si19   Si    0.40926   0.07953   0.34603   0.00000  Uiso   1.00
Si20   Si    0.30563   0.15337   0.92866   0.00000  Uiso   1.00
Si21   Si    0.51303   0.46580   0.50377   0.00000  Uiso   1.00
Si22   Si    0.48035   0.27980   0.10828   0.00000  Uiso   1.00
Si23   Si    0.36498   0.45390   0.22880   0.00000  Uiso   1.00
Si24   Si    0.47497   0.47300   0.02640   0.00000  Uiso   1.00
Si25   Si    0.53119   0.45124   0.65964   0.00000  Uiso   1.00
Si26   Si    0.35269   0.53838   0.93037   0.00000  Uiso   1.00
Si27   Si    0.54423   0.61829   0.71003   0.00000  Uiso   1.00
Si28   Si    0.49377   0.62435   0.12101   0.00000  Uiso   1.00
Si29   Si    0.36143   0.79274   0.20122   0.00000  Uiso   1.00
Si30   Si    0.49753   0.80202   0.01258   0.00000  Uiso   1.00
Si31   Si    0.34163   0.82607   0.61572   0.00000  Uiso   1.00
Si32   Si    0.46587   0.72035   0.30670   0.00000  Uiso   1.00
Si33   Si    0.51575   0.69748   0.82810   0.00000  Uiso   1.00
Si34   Si    0.32369   0.80808   0.93271   0.00000  Uiso   1.00
Si35   Si    0.51055   0.86069   0.72104   0.00000  Uiso   1.00
Si36   Si    0.87333   0.01504   0.05000   0.00000  Uiso   1.00
Si37   Si    0.68235   0.11091   0.16672   0.00000  Uiso   1.00
Si38   Si    0.95051   0.22739  -0.01327   0.00000  Uiso   1.00
Si39   Si    0.82415  -0.13213   0.49593   0.00000  Uiso   1.00
Si40   Si    0.74866   0.25892   0.66337   0.00000  Uiso   1.00
Si41   Si    0.58673   0.17885   0.88960   0.00000  Uiso   1.00
Si42   Si    0.89161   0.46950   0.67665   0.00000  Uiso   1.00
Si43   Si    0.87591   0.28514   0.10154   0.00000  Uiso   1.00
Si44   Si    0.64970   0.40689   0.19986   0.00000  Uiso   1.00
Si45   Si    0.82816   0.44066   0.01892   0.00000  Uiso   1.00
Si46   Si    0.83247   0.41701   0.26253   0.00000  Uiso   1.00
Si47   Si    0.62235   0.72004   0.23597   0.00000  Uiso   1.00
Si48   Si    0.84356   0.83499   0.00172   0.00000  Uiso   1.00
Si49   Si    0.85709   0.49326   0.39823   0.00000  Uiso   1.00
Si50   Si    0.87756   0.73275   0.82448   0.00000  Uiso   1.00
Si51   Si    0.66780   0.83295   0.91602   0.00000  Uiso   1.00
C52    C     0.10516  -0.04950   0.08849   0.00000  Uiso   1.00
C53    C    -0.01667  -0.04040   0.25525   0.00000  Uiso   1.00
C54    C     0.07024   0.17837   0.16795   0.00000  Uiso   1.00
C55    C     0.88416   0.07985   0.24254   0.00000  Uiso   1.00
C56    C    -0.19868   0.08739   0.44068   0.00000  Uiso   1.00
C57    C     0.18498   0.92794   0.80135   0.00000  Uiso   1.00
C58    C    -0.00239   0.13892   0.40381   0.00000  Uiso   1.00
C59    C    -0.02214   0.00420   0.67763   0.00000  Uiso   1.00
O60    O     0.10232   0.04497   0.78638   0.00000  Uiso   1.00
C61    C     0.04075   0.37385   0.28922   0.00000  Uiso   1.00
C62    C     0.19229   0.42200   0.08659   0.00000  Uiso   1.00
C63    C     0.11749   0.52566   0.96987   0.00000  Uiso   1.00
C64    C     0.10758   0.37459   0.79277   0.00000  Uiso   1.00
C65    C     0.10663   0.21419   0.69492   0.00000  Uiso   1.00
C66    C     0.29891   0.41215   0.76614   0.00000  Uiso   1.00
C67    C     0.25408   0.58648   0.74877   0.00000  Uiso   1.00
O68    O     0.09856   0.52933   0.17001   0.00000  Uiso   1.00
O69    O     0.23319   0.60989   0.07567   0.00000  Uiso   1.00
C70    C     0.09054   0.66193   0.27891   0.00000  Uiso   1.00
O71    O     0.15278   0.83036   0.18517   0.00000  Uiso   1.00
C72    C     1.11539   0.82955   0.32637   0.00000  Uiso   1.00
C73    C     0.95633   0.72951   0.21768   0.00000  Uiso   1.00
O74    O     0.13340   0.69033   0.08615   0.00000  Uiso   1.00
O75    O     0.21402   0.87408   0.06497   0.00000  Uiso   1.00
C76    C     0.11581   0.68066   0.54779   0.00000  Uiso   1.00
C77    C     0.19770   0.54149   0.53392   0.00000  Uiso   1.00
C78    C     0.25711   0.74850   0.44138   0.00000  Uiso   1.00
O79    O     0.07446   0.77711   0.98436   0.00000  Uiso   1.00
O80    O     0.07750   0.93457   0.90621   0.00000  Uiso   1.00
O81    O     0.29097   0.01110   0.14459   0.00000  Uiso   1.00
C82    C     0.22549   0.09662   0.21615   0.00000  Uiso   1.00
O83    O     0.47059   0.03901   0.05036   0.00000  Uiso   1.00
C84    C     0.51890   0.10413   0.50953   0.00000  Uiso   1.00
C85    C     0.10928  -0.02346   0.57075   0.00000  Uiso   1.00
C86    C     0.23539   0.18598   0.52772   0.00000  Uiso   1.00
O87    O     0.18263   0.10099   0.66974   0.00000  Uiso   1.00
O88    O     0.36150   0.04652   0.27015   0.00000  Uiso   1.00
O89    O     0.39429  -0.00378   0.41147   0.00000  Uiso   1.00
C90    C     0.37041   0.16622   0.36584   0.00000  Uiso   1.00
O91    O     0.24418   0.08462   0.87287   0.00000  Uiso   1.00
O92    O     0.36348   0.10921   0.97959   0.00000  Uiso   1.00
C93    C     0.23936   0.18856   0.97958   0.00000  Uiso   1.00
C94    C     0.32773   0.07594   0.61195   0.00000  Uiso   1.00
C95    C     0.39824   0.46638   0.48191   0.00000  Uiso   1.00
C96    C     0.51294   0.35152   0.50417   0.00000  Uiso   1.00
C97    C     0.60367   0.55697   0.44073   0.00000  Uiso   1.00
O98    O     0.40082   0.19864   0.16128   0.00000  Uiso   1.00
O99    O     0.49567   0.21885   0.05986   0.00000  Uiso   1.00
C100   C     0.34386   0.35021   0.19608   0.00000  Uiso   1.00
C101   C     0.45395   0.46173   0.29944   0.00000  Uiso   1.00
C102   C     0.25542   0.42875   0.26222   0.00000  Uiso   1.00
O103   O     0.45137   0.36048   0.06919   0.00000  Uiso   1.00
C104   C     0.57113   0.51445   0.96470   0.00000  Uiso   1.00
C105   C     0.39233   0.27408   0.88041   0.00000  Uiso   1.00
C106   C     0.42079   0.33566   0.66955   0.00000  Uiso   1.00
O107   O     0.53600   0.49370   0.57827   0.00000  Uiso   1.00
C108   C     0.63251   0.42937   0.69131   0.00000  Uiso   1.00
O109   O     0.27107   0.48561   0.87547   0.00000  Uiso   1.00
O110   O     0.39025   0.47023   0.97799   0.00000  Uiso   1.00
O111   O     0.30916   0.57359   0.98175   0.00000  Uiso   1.00
C112   C     0.47443   0.65588   0.63987   0.00000  Uiso   1.00
O113   O     0.52176   0.51430   0.70815   0.00000  Uiso   1.00
C114   C     0.67092   0.70051   0.68413   0.00000  Uiso   1.00
O115   O     0.40778   0.55347   0.17219   0.00000  Uiso   1.00
O116   O     0.50784   0.55803   0.07483   0.00000  Uiso   1.00
O117   O     0.26632   0.69913   0.17792   0.00000  Uiso   1.00
O118   O     0.42014   0.87915   0.13962   0.00000  Uiso   1.00
C119   C     0.33585   0.84343   0.27066   0.00000  Uiso   1.00
O120   O     0.47183   0.70796   0.07667   0.00000  Uiso   1.00
O121   O     0.52104   0.90395   0.03985   0.00000  Uiso   1.00
O122   O     0.29622   0.72247   0.58801   0.00000  Uiso   1.00
O123   O     0.36964   0.90983   0.54817   0.00000  Uiso   1.00
C124   C     0.25792   0.82572   0.66664   0.00000  Uiso   1.00
O125   O     0.43706   0.76419   0.23743   0.00000  Uiso   1.00
C126   C     0.35774   0.61804   0.35394   0.00000  Uiso   1.00
C127   C     0.52438   0.81193   0.36519   0.00000  Uiso   1.00
C128   C     0.52332   0.93375   0.48232   0.00000  Uiso   1.00
O129   O     0.43837   0.63368   0.88676   0.00000  Uiso   1.00
O130   O     0.53003   0.63284   0.78549   0.00000  Uiso   1.00
C131   C     0.27571   0.74437   0.85772   0.00000  Uiso   1.00
O132   O     0.40341   0.77739   0.96786   0.00000  Uiso   1.00
C133   C     0.36812   0.93743   0.90943   0.00000  Uiso   1.00
O134   O     0.23687   0.77592   0.98215   0.00000  Uiso   1.00
O135   O     0.43248   0.84158   0.65997   0.00000  Uiso   1.00
O136   O     0.48464   0.76614   0.77460   0.00000  Uiso   1.00
C137   C     0.51831   0.95715   0.76622   0.00000  Uiso   1.00
C138   C     0.62894   0.91264   0.68313   0.00000  Uiso   1.00
O139   O     0.92134   0.02143   0.12379   0.00000  Uiso   1.00
O140   O     0.61012   0.01837   0.12692   0.00000  Uiso   1.00
C141   C     0.66307   0.05530   0.26387   0.00000  Uiso   1.00
C142   C     0.63813   0.19426   0.15819   0.00000  Uiso   1.00
C143   C     0.53616   0.14635   0.33152   0.00000  Uiso   1.00
C144   C     1.07773   0.27048   0.98191   0.00000  Uiso   1.00
O145   O     0.90953   0.11549   0.00271   0.00000  Uiso   1.00
C146   C     0.85221  -0.15873   0.41392   0.00000  Uiso   1.00
O147   O     0.88363  -0.01808   0.50516   0.00000  Uiso   1.00
C148   C     0.69867   0.82613   0.49988   0.00000  Uiso   1.00
C149   C     0.85594   0.79213   0.56277   0.00000  Uiso   1.00
C150   C     0.79027   0.19370   0.73718   0.00000  Uiso   1.00
C151   C     0.78101   1.23133   0.58739   0.00000  Uiso   1.00
C152   C     0.49781   0.15336   0.81702   0.00000  Uiso   1.00
C153   C     0.62345   0.08277   0.91840   0.00000  Uiso   1.00
C154   C     0.90956   0.24867   0.90053   0.00000  Uiso   1.00
C155   C     0.68892   0.30324   0.85828   0.00000  Uiso   1.00
O156   O     0.54238   0.19133   0.95140   0.00000  Uiso   1.00
C157   C     0.95758   0.16945   0.54023   0.00000  Uiso   1.00
C158   C     0.99133   0.45891   0.65053   0.00000  Uiso   1.00
C159   C     0.89590   0.57340   0.61508   0.00000  Uiso   1.00
O160   O     0.79511   0.37158   0.66463   0.00000  Uiso   1.00
C161   C     0.90428   0.48018   0.76771   0.00000  Uiso   1.00
O162   O     0.79379   0.17698   0.13808   0.00000  Uiso   1.00
O163   O     0.92411   0.27337   0.04202   0.00000  Uiso   1.00
O164   O     0.95656   0.34766   0.15428   0.00000  Uiso   1.00
O165   O     0.58052   0.33045   0.15192   0.00000  Uiso   1.00
C166   C     0.67638   0.53140   0.16258   0.00000  Uiso   1.00
C167   C     0.60513   0.38127   0.28941   0.00000  Uiso   1.00
C168   C     0.89583   0.47344   0.93943   0.00000  Uiso   1.00
O169   O     0.82527   0.34876   0.07010   0.00000  Uiso   1.00
C170   C     0.88145   0.54827   0.06548   0.00000  Uiso   1.00
C171   C     0.70486   0.41282   0.99834   0.00000  Uiso   1.00
O172   O     0.92624   0.45970   0.21906   0.00000  Uiso   1.00
O173   O     0.75164   0.40872   0.20892   0.00000  Uiso   1.00
C174   C     0.80197   0.29710   0.31288   0.00000  Uiso   1.00
O175   O     0.58587   0.67887   0.16688   0.00000  Uiso   1.00
C176   C     0.70872   0.68369   0.27764   0.00000  Uiso   1.00
C177   C     0.68230   0.85376   0.22054   0.00000  Uiso   1.00
C178   C     0.74852   0.96859   0.06332   0.00000  Uiso   1.00
O179   O     0.53804   0.68686   0.28801   0.00000  Uiso   1.00
O180   O     0.92832   0.81562   0.98647   0.00000  Uiso   1.00
C181   C     0.79597   0.76428   0.08891   0.00000  Uiso   1.00
O182   O     0.88816   0.94488   0.01075   0.00000  Uiso   1.00
C183   C     0.74208   0.40199   0.43768   0.00000  Uiso   1.00
O184   O     0.84027   0.48432   0.31694   0.00000  Uiso   1.00
C185   C     0.87451   0.62020   0.39950   0.00000  Uiso   1.00
C186   C     0.95482   0.47062   0.43459   0.00000  Uiso   1.00
C187   C     0.76653   0.62833   0.85922   0.00000  Uiso   1.00
C188   C     0.92237   0.71733   0.74699   0.00000  Uiso   1.00
C189   C     0.84874   0.83528   0.80312   0.00000  Uiso   1.00
O190   O     0.95725   0.76060   0.88321   0.00000  Uiso   1.00
O191   O     0.61224   0.75930   0.86234   0.00000  Uiso   1.00
O192   O     0.75191   0.81013   0.95089   0.00000  Uiso   1.00
C193   C     0.72508   0.95790   0.86666   0.00000  Uiso   1.00
C194   C     0.61867   1.20064   0.66512   0.00000  Uiso   1.00
O195   O     0.58673   0.81641   0.97192   0.00000  Uiso   1.00
H196   H     0.09092  -0.01279   0.12317   0.00000  Uiso   1.00
H197   H     0.03993  -0.11509   0.07831   0.00000  Uiso   1.00
H198   H     0.13229   0.00111   0.04158   0.00000  Uiso   1.00
H199   H     0.01414  -0.06883   0.22709   0.00000  Uiso   1.00
H200   H    -0.08519  -0.09806   0.27566   0.00000  Uiso   1.00
H201   H     0.03142  -0.00172   0.29955   0.00000  Uiso   1.00
H202   H     0.11010   0.17831   0.12367   0.00000  Uiso   1.00
H203   H     0.11702   0.20659   0.21070   0.00000  Uiso   1.00
H204   H     0.03339   0.22032   0.14980   0.00000  Uiso   1.00
H205   H     0.81328   0.05658   0.21672   0.00000  Uiso   1.00
H206   H     0.92354   0.15585   0.24945   0.00000  Uiso   1.00
H207   H     0.87719   0.03408   0.29345   0.00000  Uiso   1.00
H208   H    -0.25854   0.05520   0.48081   0.00000  Uiso   1.00
H209   H    -0.22649   0.03678   0.39923   0.00000  Uiso   1.00
H210   H    -0.18651   0.15688   0.41567   0.00000  Uiso   1.00
H211   H     0.18195   0.86388   0.83747   0.00000  Uiso   1.00
H212   H     0.25691   0.97609   0.78517   0.00000  Uiso   1.00
H213   H     0.13203   0.90340   0.76019   0.00000  Uiso   1.00
H214   H     0.07236   0.18785   0.41874   0.00000  Uiso   1.00
H215   H    -0.02169   0.18017   0.35828   0.00000  Uiso   1.00
H216   H     0.00264   0.07688   0.38707   0.00000  Uiso   1.00
H217   H    -0.03652  -0.07337   0.68110   0.00000  Uiso   1.00
H218   H    -0.03209   0.02493   0.62455   0.00000  Uiso   1.00
H219   H    -0.07867   0.00588   0.70022   0.00000  Uiso   1.00
H220   H     0.09936   0.42632   0.31238   0.00000  Uiso   1.00
H221   H     0.05897   0.32342   0.27900   0.00000  Uiso   1.00
H222   H    -0.01838   0.33500   0.32794   0.00000  Uiso   1.00
H223   H     0.21362   0.44203   0.13786   0.00000  Uiso   1.00
H224   H     0.22907   0.38756   0.07456   0.00000  Uiso   1.00
H225   H     0.11275   0.37306   0.08759   0.00000  Uiso   1.00
H226   H     0.06070   0.48551   1.00347   0.00000  Uiso   1.00
H227   H     0.10870   0.48888   0.92434   0.00000  Uiso   1.00
H228   H     0.12147   0.59946   0.94928   0.00000  Uiso   1.00
H229   H     0.09923   0.30800   0.82722   0.00000  Uiso   1.00
H230   H     0.06912   0.34899   0.74584   0.00000  Uiso   1.00
H231   H     0.07277   0.40939   0.81344   0.00000  Uiso   1.00
H232   H     0.10146   0.23016   0.74255   0.00000  Uiso   1.00
H233   H     0.04829   0.21355   0.66164   0.00000  Uiso   1.00
H234   H     0.17507   0.26700   0.66754   0.00000  Uiso   1.00
H235   H     0.30787   0.43064   0.70780   0.00000  Uiso   1.00
H236   H     0.26639   0.33424   0.78668   0.00000  Uiso   1.00
H237   H     0.37203   0.44737   0.79011   0.00000  Uiso   1.00
H238   H     0.20037   0.60169   0.76924   0.00000  Uiso   1.00
H239   H     0.24785   0.58705   0.69363   0.00000  Uiso   1.00
H240   H     0.32408   0.64103   0.76087   0.00000  Uiso   1.00
H241   H     0.06274   0.61658   0.23693   0.00000  Uiso   1.00
H242   H     0.03934   0.61777   0.32261   0.00000  Uiso   1.00
H243   H     0.16284   0.67220   0.29728   0.00000  Uiso   1.00
H244   H     1.07710   0.87375   0.32260   0.00000  Uiso   1.00
H245   H     1.18982   0.88185   0.31495   0.00000  Uiso   1.00
H246   H     1.09821   0.78455   0.37749   0.00000  Uiso   1.00
H247   H     0.91148   0.69936   0.26286   0.00000  Uiso   1.00
H248   H     0.94085   0.67686   0.18139   0.00000  Uiso   1.00
H249   H     0.95002   0.79211   0.19215   0.00000  Uiso   1.00
H250   H     0.12522   0.75518   0.53237   0.00000  Uiso   1.00
H251   H     0.09976   0.65956   0.60369   0.00000  Uiso   1.00
H252   H     0.06019   0.62724   0.52243   0.00000  Uiso   1.00
H253   H     0.26931   0.55307   0.53681   0.00000  Uiso   1.00
H254   H     0.15545   0.51399   0.48310   0.00000  Uiso   1.00
H255   H     0.15860   0.48771   0.57742   0.00000  Uiso   1.00
H256   H     0.33382   0.77009   0.43076   0.00000  Uiso   1.00
H257   H     0.25662   0.81213   0.44526   0.00000  Uiso   1.00
H258   H     0.20167   0.72132   0.40522   0.00000  Uiso   1.00
H259   H     0.19816   0.11493   0.16834   0.00000  Uiso   1.00
H260   H     0.24367   0.14260   0.25787   0.00000  Uiso   1.00
H261   H     0.16615   0.02556   0.23675   0.00000  Uiso   1.00
H262   H     0.46628   0.12858   0.51136   0.00000  Uiso   1.00
H263   H     0.57818   0.15593   0.47409   0.00000  Uiso   1.00
H264   H     0.54172   0.08922   0.56287   0.00000  Uiso   1.00
H265   H     0.07825  -0.08241   0.61214   0.00000  Uiso   1.00
H266   H     0.12390  -0.05542   0.53061   0.00000  Uiso   1.00
H267   H     0.05064  -0.00323   0.55161   0.00000  Uiso   1.00
H268   H     0.28352   0.19295   0.48486   0.00000  Uiso   1.00
H269   H     0.27177   0.24947   0.55222   0.00000  Uiso   1.00
H270   H     0.17058   0.18556   0.50914   0.00000  Uiso   1.00
H271   H     0.29402   0.12565   0.37490   0.00000  Uiso   1.00
H272   H     0.39214   0.22901   0.32140   0.00000  Uiso   1.00
H273   H     0.41148   0.20051   0.41113   0.00000  Uiso   1.00
H274   H     0.25634   0.26956   0.96325   0.00000  Uiso   1.00
H275   H     0.25096   0.16794   1.03376   0.00000  Uiso   1.00
H276   H     0.16247   0.14442   0.96821   0.00000  Uiso   1.00
H277   H     0.31977   0.02677   0.57992   0.00000  Uiso   1.00
H278   H     0.33424   0.04543   0.66531   0.00000  Uiso   1.00
H279   H     0.39172   0.14634   0.60386   0.00000  Uiso   1.00
H280   H     0.35150   0.42958   0.52615   0.00000  Uiso   1.00
H281   H     0.36163   0.43109   0.43745   0.00000  Uiso   1.00
H282   H     0.41935   0.54423   0.47689   0.00000  Uiso   1.00
H283   H     0.57135   0.35693   0.54038   0.00000  Uiso   1.00
H284   H     0.50661   0.34211   0.44802   0.00000  Uiso   1.00
H285   H     0.44824   0.29667   0.52867   0.00000  Uiso   1.00
H286   H     0.59276   0.53444   0.39131   0.00000  Uiso   1.00
H287   H     0.67477   0.56642   0.46317   0.00000  Uiso   1.00
H288   H     0.59998   0.62461   0.42901   0.00000  Uiso   1.00
H289   H     0.33316   0.36250   0.14019   0.00000  Uiso   1.00
H290   H     0.28149   0.28655   0.22027   0.00000  Uiso   1.00
H291   H     0.39987   0.32889   0.21038   0.00000  Uiso   1.00
H292   H     0.45510   0.50000   0.33867   0.00000  Uiso   1.00
H293   H     0.52752   0.50089   0.27779   0.00000  Uiso   1.00
H294   H     0.42983   0.38435   0.32821   0.00000  Uiso   1.00
H295   H     0.24559   0.49234   0.24556   0.00000  Uiso   1.00
H296   H     0.25123   0.40727   0.31999   0.00000  Uiso   1.00
H297   H     0.19837   0.36629   0.23923   0.00000  Uiso   1.00
H298   H     0.63752   0.53106   0.99307   0.00000  Uiso   1.00
H299   H     0.57808   0.58253   0.92915   0.00000  Uiso   1.00
H300   H     0.55213   0.46271   0.92971   0.00000  Uiso   1.00
H301   H     0.36861   0.32838   0.87910   0.00000  Uiso   1.00
H302   H     0.40656   0.26296   0.82860   0.00000  Uiso   1.00
H303   H     0.45950   0.30158   0.91290   0.00000  Uiso   1.00
H304   H     0.36283   0.34304   0.63587   0.00000  Uiso   1.00
H305   H     0.39358   0.31254   0.72037   0.00000  Uiso   1.00
H306   H     0.42857   0.27606   0.65616   0.00000  Uiso   1.00
H307   H     0.60870   0.35786   0.72229   0.00000  Uiso   1.00
H308   H     0.67628   0.48706   0.72306   0.00000  Uiso   1.00
H309   H     0.66819   0.44222   0.64411   0.00000  Uiso   1.00
H310   H     0.51699   0.73542   0.62107   0.00000  Uiso   1.00
H311   H     0.40341   0.63904   0.65504   0.00000  Uiso   1.00
H312   H     0.45971   0.61338   0.59499   0.00000  Uiso   1.00
H313   H     0.68947   0.77479   0.69098   0.00000  Uiso   1.00
H314   H     0.66982   0.69049   0.63031   0.00000  Uiso   1.00
H315   H     0.71323   0.66644   0.71557   0.00000  Uiso   1.00
H316   H     0.28508   0.86450   0.25090   0.00000  Uiso   1.00
H317   H     0.39694   0.90622   0.28495   0.00000  Uiso   1.00
H318   H     0.31621   0.78499   0.31464   0.00000  Uiso   1.00
H319   H     0.21951   0.75460   0.69920   0.00000  Uiso   1.00
H320   H     0.21058   0.84667   0.63269   0.00000  Uiso   1.00
H321   H     0.29557   0.87245   0.70661   0.00000  Uiso   1.00
H322   H     0.35646   0.62279   0.41121   0.00000  Uiso   1.00
H323   H     0.35389   0.54728   0.35738   0.00000  Uiso   1.00
H324   H     0.29761   0.61703   0.32652   0.00000  Uiso   1.00
H325   H     0.48466   0.84790   0.36783   0.00000  Uiso   1.00
H326   H     0.59249   0.87131   0.34705   0.00000  Uiso   1.00
H327   H     0.53175   0.77658   0.41859   0.00000  Uiso   1.00
H328   H     0.48628   0.85171   0.48776   0.00000  Uiso   1.00
H329   H     0.58314   0.97127   0.51887   0.00000  Uiso   1.00
H330   H     0.55769   0.96501   0.43300   0.00000  Uiso   1.00
H331   H     0.30874   0.77771   0.81033   0.00000  Uiso   1.00
H332   H     0.20607   0.74030   0.85012   0.00000  Uiso   1.00
H333   H     0.26985   0.67288   0.86398   0.00000  Uiso   1.00
H334   H     0.42792   0.97233   0.94452   0.00000  Uiso   1.00
H335   H     0.30429   0.94883   0.91883   0.00000  Uiso   1.00
H336   H     0.38368   0.95844   0.85457   0.00000  Uiso   1.00
H337   H     0.59123   1.01514   0.77099   0.00000  Uiso   1.00
H338   H     0.48458   0.91806   0.81504   0.00000  Uiso   1.00
H339   H     0.47742   0.98679   0.73408   0.00000  Uiso   1.00
H340   H     0.64871   0.98774   0.65433   0.00000  Uiso   1.00
H341   H     0.63787   0.87490   0.64679   0.00000  Uiso   1.00
H342   H     0.67999   0.91536   0.72676   0.00000  Uiso   1.00
H343   H     0.69180   0.00817   0.28323   0.00000  Uiso   1.00
H344   H     0.58458   0.01027   0.27925   0.00000  Uiso   1.00
H345   H     0.69708   0.11217   0.29227   0.00000  Uiso   1.00
H346   H     0.56696   0.15726   0.17457   0.00000  Uiso   1.00
H347   H     0.64807   0.23604   0.10467   0.00000  Uiso   1.00
H348   H     0.67546   0.24332   0.19543   0.00000  Uiso   1.00
H349   H     0.56004   0.18168   0.27979   0.00000  Uiso   1.00
H350   H     0.56456   0.09863   0.35814   0.00000  Uiso   1.00
H351   H     0.56730   0.20053   0.36685   0.00000  Uiso   1.00
H352   H     1.08317   0.22910   0.94640   0.00000  Uiso   1.00
H353   H     1.09991   0.25891   1.03140   0.00000  Uiso   1.00
H354   H     1.12034   0.35037   0.96091   0.00000  Uiso   1.00
H355   H     0.80391  -0.23382   0.41462   0.00000  Uiso   1.00
H356   H     0.92202  -0.15118   0.41164   0.00000  Uiso   1.00
H357   H     0.83922  -0.11170   0.37472   0.00000  Uiso   1.00
H358   H     0.66558   0.74686   0.50402   0.00000  Uiso   1.00
H359   H     0.68371   0.87098   0.45324   0.00000  Uiso   1.00
H360   H     0.68591   0.84903   0.54550   0.00000  Uiso   1.00
H361   H     0.84689   0.79620   0.61711   0.00000  Uiso   1.00
H362   H     0.93251   0.81592   0.55895   0.00000  Uiso   1.00
H363   H     0.80839   0.71875   0.54971   0.00000  Uiso   1.00
H364   H     0.77519   0.21663   0.78026   0.00000  Uiso   1.00
H365   H     0.86769   0.21521   0.73321   0.00000  Uiso   1.00
H366   H     0.74484   0.11248   0.74617   0.00000  Uiso   1.00
H367   H     0.85612   1.29298   0.57911   0.00000  Uiso   1.00
H368   H     0.73597   1.23567   0.54204   0.00000  Uiso   1.00
H369   H     0.78722   1.16396   0.60102   0.00000  Uiso   1.00
H370   H     0.50158   0.10770   0.78069   0.00000  Uiso   1.00
H371   H     0.50455   0.22151   0.78787   0.00000  Uiso   1.00
H372   H     0.42832   0.12026   0.84020   0.00000  Uiso   1.00
H373   H     0.65803   0.08694   0.86972   0.00000  Uiso   1.00
H374   H     0.56200   0.00736   0.92941   0.00000  Uiso   1.00
H375   H     0.68077   0.10604   0.96001   0.00000  Uiso   1.00
H376   H     0.93210   0.21684   0.86685   0.00000  Uiso   1.00
H377   H     0.93842   0.32695   0.87661   0.00000  Uiso   1.00
H378   H     0.83244   0.21184   0.90491   0.00000  Uiso   1.00
H379   H     0.73825   0.31628   0.90415   0.00000  Uiso   1.00
H380   H     0.66216   0.35616   0.84917   0.00000  Uiso   1.00
H381   H     0.71824   0.29872   0.81489   0.00000  Uiso   1.00
H382   H     0.91053   0.13631   0.58346   0.00000  Uiso   1.00
H383   H     0.94955   0.23265   0.52091   0.00000  Uiso   1.00
H384   H     1.03268   0.19729   0.55633   0.00000  Uiso   1.00
H385   H     0.97147   0.38244   0.66462   0.00000  Uiso   1.00
H386   H     1.06207   0.50490   0.67232   0.00000  Uiso   1.00
H387   H     0.99934   0.48031   0.59312   0.00000  Uiso   1.00
H388   H     0.82408   0.56811   0.61945   0.00000  Uiso   1.00
H389   H     0.90365   0.57234   0.55814   0.00000  Uiso   1.00
H390   H     0.94604   0.64226   0.62967   0.00000  Uiso   1.00
H391   H     0.88859   0.41108   0.80071   0.00000  Uiso   1.00
H392   H     0.85073   0.49913   0.77328   0.00000  Uiso   1.00
H393   H     0.97817   0.53561   0.77769   0.00000  Uiso   1.00
H394   H     0.68676   0.55227   0.10375   0.00000  Uiso   1.00
H395   H     0.74255   0.58091   0.18732   0.00000  Uiso   1.00
H396   H     0.60991   0.53189   0.17096   0.00000  Uiso   1.00
H397   H     0.65223   0.35816   0.31948   0.00000  Uiso   1.00
H398   H     0.53297   0.32336   0.29244   0.00000  Uiso   1.00
H399   H     0.61960   0.44285   0.31276   0.00000  Uiso   1.00
H400   H     0.95820   0.54336   0.94459   0.00000  Uiso   1.00
H401   H     0.85257   0.47848   0.89407   0.00000  Uiso   1.00
H402   H     0.91389   0.41720   0.93352   0.00000  Uiso   1.00
H403   H     0.86696   0.60580   0.03548   0.00000  Uiso   1.00
H404   H     0.95573   0.56767   0.07278   0.00000  Uiso   1.00
H405   H     0.85910   0.53525   0.11842   0.00000  Uiso   1.00
H406   H     0.69391   0.44444   0.94386   0.00000  Uiso   1.00
H407   H     0.68314   0.43372   1.03978   0.00000  Uiso   1.00
H408   H     0.66388   0.33233   1.00366   0.00000  Uiso   1.00
H409   H     0.84627   0.30857   0.35833   0.00000  Uiso   1.00
H410   H     0.81904   0.25793   0.28722   0.00000  Uiso   1.00
H411   H     0.73086   0.26401   0.32940   0.00000  Uiso   1.00
H412   H     0.74266   0.71885   0.32209   0.00000  Uiso   1.00
H413   H     0.76107   0.70719   0.23604   0.00000  Uiso   1.00
H414   H     0.67394   0.60249   0.28925   0.00000  Uiso   1.00
H415   H     0.74915   0.88356   0.19261   0.00000  Uiso   1.00
H416   H     0.70097   0.88559   0.26944   0.00000  Uiso   1.00
H417   H     0.63480   0.87660   0.18430   0.00000  Uiso   1.00
H418   H     0.70789   0.89065   0.07436   0.00000  Uiso   1.00
H419   H     0.72689   1.01010   0.01894   0.00000  Uiso   1.00
H420   H     0.74920   0.99872   0.10944   0.00000  Uiso   1.00
H421   H     0.71528   0.73133   0.08476   0.00000  Uiso   1.00
H422   H     0.81976   0.80805   0.13001   0.00000  Uiso   1.00
H423   H     0.81517   0.70610   0.10203   0.00000  Uiso   1.00
H424   H     0.75216   0.40714   0.49369   0.00000  Uiso   1.00
H425   H     0.72881   0.32327   0.44177   0.00000  Uiso   1.00
H426   H     0.68190   0.41589   0.42067   0.00000  Uiso   1.00
H427   H     0.94724   0.67777   0.37812   0.00000  Uiso   1.00
H428   H     0.87855   0.62857   0.45207   0.00000  Uiso   1.00
H429   H     0.82212   0.63375   0.37058   0.00000  Uiso   1.00
H430   H     0.93208   0.41496   0.48129   0.00000  Uiso   1.00
H431   H     1.01307   0.54240   0.44058   0.00000  Uiso   1.00
H432   H     0.98321   0.45382   0.39185   0.00000  Uiso   1.00
H433   H     0.75846   0.56053   0.84314   0.00000  Uiso   1.00
H434   H     0.70684   0.63477   0.83802   0.00000  Uiso   1.00
H435   H     0.76799   0.62973   0.91676   0.00000  Uiso   1.00
H436   H     0.97321   0.78523   0.71194   0.00000  Uiso   1.00
H437   H     0.86087   0.66566   0.71683   0.00000  Uiso   1.00
H438   H     0.96508   0.68221   0.77364   0.00000  Uiso   1.00
H439   H     0.82168   0.83199   0.75266   0.00000  Uiso   1.00
H440   H     0.90950   0.91200   0.80880   0.00000  Uiso   1.00
H441   H     0.78930   0.82354   0.82880   0.00000  Uiso   1.00
H442   H     0.67339   0.96181   0.83018   0.00000  Uiso   1.00
H443   H     0.78062   0.96109   0.83495   0.00000  Uiso   1.00
H444   H     0.74810   1.01340   0.90132   0.00000  Uiso   1.00
H445   H     0.60359   1.22469   0.71040   0.00000  Uiso   1.00
H446   H     0.58890   1.12218   0.67073   0.00000  Uiso   1.00
H447   H     0.58296   1.22303   0.61868   0.00000  Uiso   1.00
loop_
_geom_bond_atom_site_label_1
_geom_bond_atom_site_label_2
_geom_bond_distance
_geom_bond_site_symmetry_2
_ccdc_geom_bond_type
Si1    C52     1.824   .     S
Si1    O81     1.604   .     S
Si1    O71     1.610   1_545 S
Si1    O75     1.582   1_545 S
Si2    C53     1.935   .     S
Si2    C54     1.876   .     S
Si2    C55     1.856   1_455 S
Si2    O139    1.595   1_455 S
Si3    C56     1.791   .     S
Si3    C58     1.860   .     S
Si3    O147    1.577   1_455 S
Si3    C157    1.859   1_455 S
Si4    O60     1.604   .     S
Si4    O91     1.610   .     S
Si4    C57     1.855   1_545 S
Si4    O80     1.593   1_545 S
Si5    C59     1.873   .     S
Si5    O60     1.586   .     S
Si5    C65     1.913   .     S
Si5    O87     1.544   .     S
Si6    C61     1.969   .     S
Si6    O68     1.623   .     S
Si6    O164    1.615   1_455 S
Si6    O172    1.643   1_455 S
Si7    C62     1.866   .     S
Si7    O69     1.582   .     S
Si7    C63     1.871   1_554 S
Si7    O111    1.557   1_554 S
Si8    C64     1.887   .     S
Si8    C66     1.839   .     S
Si8    C67     1.871   .     S
Si8    O109    1.626   .     S
Si9    O68     1.630   .     S
Si9    O69     1.590   .     S
Si9    O74     1.591   .     S
Si9    O117    1.648   .     S
Si10   C70     1.813   .     S
Si10   O71     1.586   .     S
Si10   C72     1.887   1_455 S
Si10   C73     1.860   1_455 S
Si11   O74     1.552   .     S
Si11   O75     1.579   .     S
Si11   O79     1.605   1_554 S
Si11   O134    1.620   1_554 S
Si12   C76     1.853   .     S
Si12   C77     1.907   .     S
Si12   C78     1.926   .     S
Si12   O122    1.595   .     S
Si13   O79     1.677   .     S
Si13   O80     1.602   .     S
Si13   O180    1.595   1_455 S
Si13   O190    1.585   1_455 S
Si14   O83     1.675   .     S
Si14   O140    1.639   .     S
Si14   O118    1.595   1_545 S
Si14   O121    1.603   1_545 S
Si15   O81     1.606   .     S
Si15   C82     1.828   .     S
Si15   O88     1.645   .     S
Si15   O98     1.620   .     S
Si16   O83     1.638   .     S
Si16   O99     1.600   .     S
Si16   O92     1.622   1_554 S
Si16   O156    1.606   1_554 S
Si17   C84     1.872   .     S
Si17   O89     1.656   .     S
Si17   O123    1.592   1_545 S
Si17   C128    1.832   1_545 S
Si18   C85     1.950   .     S
Si18   C86     1.875   .     S
Si18   O87     1.574   .     S
Si18   C94     1.888   .     S
Si19   O88     1.671   .     S
Si19   O89     1.611   .     S
Si19   C90     1.907   .     S
Si19   C143    1.821   .     S
Si20   O91     1.609   .     S
Si20   O92     1.611   .     S
Si20   C93     1.884   .     S
Si20   C105    1.875   .     S
Si21   C95     1.880   .     S
Si21   C96     1.836   .     S
Si21   C97     1.846   .     S
Si21   O107    1.575   .     S
Si22   O98     1.598   .     S
Si22   O99     1.610   .     S
Si22   O103    1.627   .     S
Si22   O165    1.654   .     S
Si23   C100    1.767   .     S
Si23   C101    1.880   .     S
Si23   C102    1.792   .     S
Si23   O115    1.631   .     S
Si24   O103    1.710   .     S
Si24   O116    1.658   .     S
Si24   C104    1.851   1_554 S
Si24   O110    1.583   1_554 S
Si25   C106    1.830   .     S
Si25   O107    1.613   .     S
Si25   C108    1.876   .     S
Si25   O113    1.591   .     S
Si26   O109    1.614   .     S
Si26   O110    1.615   .     S
Si26   O111    1.619   .     S
Si26   O129    1.630   .     S
Si27   C112    1.900   .     S
Si27   O113    1.533   .     S
Si27   C114    1.877   .     S
Si27   O130    1.609   .     S
Si28   O115    1.596   .     S
Si28   O116    1.639   .     S
Si28   O120    1.631   .     S
Si28   O175    1.602   .     S
Si29   O117    1.641   .     S
Si29   O118    1.610   .     S
Si29   C119    1.899   .     S
Si29   O125    1.579   .     S
Si30   O120    1.675   .     S
Si30   O121    1.675   .     S
Si30   O132    1.595   1_554 S
Si30   O195    1.627   1_554 S
Si31   O122    1.635   .     S
Si31   O123    1.619   .     S
Si31   C124    1.773   .     S
Si31   O135    1.572   .     S
Si32   O125    1.552   .     S
Si32   C126    1.885   .     S
Si32   C127    1.859   .     S
Si32   O179    1.614   .     S
Si33   O129    1.595   .     S
Si33   O130    1.569   .     S
Si33   O136    1.608   .     S
Si33   O191    1.553   .     S
Si34   C131    1.847   .     S
Si34   O132    1.652   .     S
Si34   C133    1.809   .     S
Si34   O134    1.608   .     S
Si35   O135    1.615   .     S
Si35   O136    1.563   .     S
Si35   C137    1.881   .     S
Si35   C138    1.854   .     S
Si36   O139    1.578   .     S
Si36   O145    1.554   .     S
Si36   C178    1.815   1_545 S
Si36   O182    1.606   1_545 S
Si37   O140    1.658   .     S
Si37   C141    1.939   .     S
Si37   C142    1.786   .     S
Si37   O162    1.678   .     S
Si38   O145    1.555   .     S
Si38   O163    1.628   .     S
Si38   C144    1.838   1_554 S
Si38   C154    1.796   1_554 S
Si39   C146    1.905   .     S
Si39   O147    1.634   .     S
Si39   C148    1.814   1_545 S
Si39   C149    1.832   1_545 S
Si40   C150    1.895   .     S
Si40   O160    1.585   .     S
Si40   C151    1.838   1_545 S
Si40   C194    1.845   1_545 S
Si41   C152    1.880   .     S
Si41   C153    1.891   .     S
Si41   C155    1.895   .     S
Si41   O156    1.572   .     S
Si42   C158    1.849   .     S
Si42   C159    1.841   .     S
Si42   O160    1.620   .     S
Si42   C161    1.820   .     S
Si43   O162    1.657   .     S
Si43   O163    1.568   .     S
Si43   O164    1.624   .     S
Si43   O169    1.612   .     S
Si44   O165    1.593   .     S
Si44   C166    1.837   .     S
Si44   C167    1.873   .     S
Si44   O173    1.639   .     S
Si45   O169    1.603   .     S
Si45   C170    1.887   .     S
Si45   C168    1.848   1_554 S
Si45   C171    1.848   1_554 S
Si46   O172    1.595   .     S
Si46   O173    1.571   .     S
Si46   C174    1.834   .     S
Si46   O184    1.622   .     S
Si47   O175    1.564   .     S
Si47   C176    1.841   .     S
Si47   C177    1.844   .     S
Si47   O179    1.606   .     S
Si48   C181    1.871   .     S
Si48   O182    1.584   .     S
Si48   O180    1.626   1_554 S
Si48   O192    1.629   1_554 S
Si49   C183    1.846   .     S
Si49   O184    1.622   .     S
Si49   C185    1.923   .     S
Si49   C186    1.850   .     S
Si50   C187    1.834   .     S
Si50   C188    1.869   .     S
Si50   C189    1.891   .     S
Si50   O190    1.596   .     S
Si51   O191    1.604   .     S
Si51   O192    1.641   .     S
Si51   C193    1.852   .     S
Si51   O195    1.695   .     S
C52    H196    1.094   .     S
C52    H197    1.101   .     S
C52    H198    1.073   .     S
C53    H199    1.074   .     S
C53    H200    1.092   .     S
C53    H201    1.163   .     S
C54    H202    1.142   .     S
C54    H203    1.083   .     S
C54    H204    1.099   .     S
C55    H205    1.122   .     S
C55    H206    1.093   .     S
C55    H207    1.104   .     S
C55    Si2     1.856   1_655 S
C56    H208    1.161   .     S
C56    H209    1.164   .     S
C56    H210    1.058   .     S
C57    H211    1.116   .     S
C57    H212    1.076   .     S
C57    H213    1.097   .     S
C57    Si4     1.855   1_565 S
C58    H214    1.121   .     S
C58    H215    1.125   .     S
C58    H216    1.152   .     S
C59    H217    1.139   .     S
C59    H218    1.058   .     S
C59    H219    1.078   .     S
C61    H220    1.047   .     S
C61    H221    1.050   .     S
C61    H222    1.128   .     S
C62    H223    1.092   .     S
C62    H224    1.064   .     S
C62    H225    1.135   .     S
C63    H226    1.040   .     S
C63    H227    1.129   .     S
C63    H228    1.149   .     S
C63    Si7     1.871   1_556 S
C64    H229    1.105   .     S
C64    H230    1.093   .     S
C64    H231    1.119   .     S
C65    H232    1.044   .     S
C65    H233    1.096   .     S
C65    H234    1.125   .     S
C66    H235    1.138   .     S
C66    H236    1.098   .     S
C66    H237    1.133   .     S
C67    H238    1.146   .     S
C67    H239    1.082   .     S
C67    H240    1.078   .     S
C70    H241    1.120   .     S
C70    H242    1.126   .     S
C70    H243    1.136   .     S
O71    Si1     1.610   1_565 S
C72    H244    1.144   .     S
C72    H245    1.096   .     S
C72    H246    1.093   .     S
C72    Si10    1.887   1_655 S
C73    H247    1.087   .     S
C73    H248    1.132   .     S
C73    H249    1.083   .     S
C73    Si10    1.860   1_655 S
O75    Si1     1.582   1_565 S
C76    H250    1.113   .     S
C76    H251    1.108   .     S
C76    H252    1.055   .     S
C77    H253    1.084   .     S
C77    H254    1.185   .     S
C77    H255    1.082   .     S
C78    H256    1.150   .     S
C78    H257    1.045   .     S
C78    H258    1.056   .     S
O79    Si11    1.605   1_556 S
O80    Si4     1.593   1_565 S
C82    H259    1.054   .     S
C82    H260    1.132   .     S
C82    H261    1.101   .     S
C84    H262    1.112   .     S
C84    H263    1.110   .     S
C84    H264    1.102   .     S
C85    H265    1.064   .     S
C85    H266    1.126   .     S
C85    H267    1.161   .     S
C86    H268    1.165   .     S
C86    H269    1.078   .     S
C86    H270    1.079   .     S
C90    H271    1.097   .     S
C90    H272    1.132   .     S
C90    H273    1.120   .     S
O92    Si16    1.622   1_556 S
C93    H274    1.173   .     S
C93    H275    1.083   .     S
C93    H276    1.117   .     S
C94    H277    1.058   .     S
C94    H278    1.091   .     S
C94    H279    1.091   .     S
C95    H280    1.088   .     S
C95    H281    1.095   .     S
C95    H282    1.109   .     S
C96    H283    1.108   .     S
C96    H284    1.135   .     S
C96    H285    1.069   .     S
C97    H286    1.074   .     S
C97    H287    1.144   .     S
C97    H288    1.098   .     S
C100   H289    1.094   .     S
C100   H290    1.091   .     S
C100   H291    1.118   .     S
C101   H292    1.072   .     S
C101   H293    1.127   .     S
C101   H294    1.146   .     S
C102   H295    1.096   .     S
C102   H296    1.125   .     S
C102   H297    1.116   .     S
C104   H298    1.097   .     S
C104   H299    1.140   .     S
C104   H300    1.091   .     S
C104   Si24    1.851   1_556 S
C105   H301    1.112   .     S
C105   H302    1.137   .     S
C105   H303    1.136   .     S
C106   H304    1.140   .     S
C106   H305    1.061   .     S
C106   H306    1.110   .     S
C108   H307    1.087   .     S
C108   H308    1.114   .     S
C108   H309    1.080   .     S
O110   Si24    1.583   1_556 S
O111   Si7     1.557   1_556 S
C112   H310    1.116   .     S
C112   H311    1.110   .     S
C112   H312    1.157   .     S
C114   H313    1.111   .     S
C114   H314    1.102   .     S
C114   H315    1.147   .     S
O118   Si14    1.595   1_565 S
C119   H316    1.054   .     S
C119   H317    1.071   .     S
C119   H318    1.088   .     S
O121   Si14    1.603   1_565 S
O123   Si17    1.592   1_565 S
C124   H319    1.097   .     S
C124   H320    1.105   .     S
C124   H321    1.113   .     S
C126   H322    1.151   .     S
C126   H323    1.098   .     S
C126   H324    1.064   .     S
C127   H325    1.071   .     S
C127   H326    1.082   .     S
C127   H327    1.122   .     S
C128   H328    1.135   .     S
C128   H329    1.130   .     S
C128   H330    1.076   .     S
C128   Si17    1.832   1_565 S
C131   H331    1.037   .     S
C131   H332    1.100   .     S
C131   H333    1.089   .     S
O132   Si30    1.595   1_556 S
C133   H334    1.102   .     S
C133   H335    1.180   .     S
C133   H336    1.087   .     S
O134   Si11    1.620   1_556 S
C137   H337    1.097   .     S
C137   H338    1.076   .     S
C137   H339    1.088   .     S
C138   H340    1.128   .     S
C138   H341    1.088   .     S
C138   H342    1.126   .     S
O139   Si2     1.595   1_655 S
C141   H343    1.069   .     S
C141   H344    1.153   .     S
C141   H345    1.045   .     S
C142   H346    1.060   .     S
C142   H347    1.117   .     S
C142   H348    1.091   .     S
C143   H349    1.075   .     S
C143   H350    1.107   .     S
C143   H351    1.109   .     S
C144   H352    1.093   .     S
C144   H353    1.022   .     S
C144   H354    1.129   .     S
C144   Si38    1.838   1_556 S
C146   H355    1.064   .     S
C146   H356    1.087   .     S
C146   H357    1.055   .     S
O147   Si3     1.577   1_655 S
C148   H358    1.101   .     S
C148   H359    1.140   .     S
C148   H360    1.111   .     S
C148   Si39    1.814   1_565 S
C149   H361    1.117   .     S
C149   H362    1.116   .     S
C149   H363    1.110   .     S
C149   Si39    1.832   1_565 S
C150   H364    1.084   .     S
C150   H365    1.138   .     S
C150   H366    1.125   .     S
C151   H367    1.133   .     S
C151   H368    1.112   .     S
C151   H369    1.117   .     S
C151   Si40    1.838   1_565 S
C152   H370    1.147   .     S
C152   H371    1.093   .     S
C152   H372    1.091   .     S
C153   H373    1.138   .     S
C153   H374    1.123   .     S
C153   H375    1.141   .     S
C154   H376    1.099   .     S
C154   H377    1.122   .     S
C154   H378    1.097   .     S
C154   Si38    1.796   1_556 S
C155   H379    1.126   .     S
C155   H380    1.113   .     S
C155   H381    1.054   .     S
O156   Si16    1.606   1_556 S
C157   H382    1.074   .     S
C157   H383    1.080   .     S
C157   H384    1.110   .     S
C157   Si3     1.859   1_655 S
C158   H385    1.089   .     S
C158   H386    1.113   .     S
C158   H387    1.120   .     S
C159   H388    1.142   .     S
C159   H389    1.148   .     S
C159   H390    1.076   .     S
C161   H391    1.094   .     S
C161   H392    1.078   .     S
C161   H393    1.113   .     S
O164   Si6     1.615   1_655 S
C166   H394    1.150   .     S
C166   H395    1.108   .     S
C166   H396    1.117   .     S
C167   H397    1.088   .     S
C167   H398    1.078   .     S
C167   H399    1.083   .     S
C168   H400    1.095   .     S
C168   H401    1.097   .     S
C168   H402    1.109   .     S
C168   Si45    1.848   1_556 S
C170   H403    1.113   .     S
C170   H404    1.091   .     S
C170   H405    1.090   .     S
C171   H406    1.134   .     S
C171   H407    1.092   .     S
C171   H408    1.113   .     S
C171   Si45    1.848   1_556 S
O172   Si6     1.643   1_655 S
C174   H409    1.077   .     S
C174   H410    1.029   .     S
C174   H411    1.064   .     S
C176   H412    1.086   .     S
C176   H413    1.118   .     S
C176   H414    1.121   .     S
C177   H415    1.107   .     S
C177   H416    1.124   .     S
C177   H417    1.145   .     S
C178   H418    1.077   .     S
C178   H419    1.132   .     S
C178   H420    1.108   .     S
C178   Si36    1.815   1_565 S
O180   Si13    1.595   1_655 S
O180   Si48    1.626   1_556 S
C181   H421    1.149   .     S
C181   H422    1.092   .     S
C181   H423    1.105   .     S
O182   Si36    1.606   1_565 S
C183   H424    1.114   .     S
C183   H425    1.162   .     S
C183   H426    1.116   .     S
C185   H427    1.142   .     S
C185   H428    1.064   .     S
C185   H429    1.067   .     S
C186   H430    1.100   .     S
C186   H431    1.092   .     S
C186   H432    1.137   .     S
C187   H433    1.136   .     S
C187   H434    1.064   .     S
C187   H435    1.138   .     S
C188   H436    1.134   .     S
C188   H437    1.138   .     S
C188   H438    1.131   .     S
C189   H439    1.047   .     S
C189   H440    1.156   .     S
C189   H441    1.055   .     S
O190   Si13    1.585   1_655 S
O192   Si48    1.629   1_556 S
C193   H442    1.069   .     S
C193   H443    1.128   .     S
C193   H444    1.122   .     S
C194   H445    1.133   .     S
C194   H446    1.091   .     S
C194   H447    1.131   .     S
C194   Si40    1.845   1_565 S
O195   Si30    1.627   1_556 S
