data_333-11-11-14-15-30-2
_audit_creation_date              2025-03-07
_audit_creation_method            'Materials Studio'
_symmetry_space_group_name_H-M    'P1'
_symmetry_Int_Tables_number       1
_symmetry_cell_setting            triclinic
loop_
_symmetry_equiv_pos_as_xyz
  x,y,z
_cell_length_a                    15.7804
_cell_length_b                    15.8846
_cell_length_c                    20.3255
_cell_angle_alpha                 96.7758
_cell_angle_beta                  86.8321
_cell_angle_gamma                 113.3415
loop_
_atom_site_label
_atom_site_type_symbol
_atom_site_fract_x
_atom_site_fract_y
_atom_site_fract_z
_atom_site_U_iso_or_equiv
_atom_site_adp_type
_atom_site_occupancy
Si1    Si    0.16496  -0.06789   0.20891   0.00000  Uiso   1.00
Si2    Si    0.15776   0.00819   0.43875   0.00000  Uiso   1.00
Si3    Si    0.14238   0.13418   0.34780   0.00000  Uiso   1.00
Si4    Si    0.22283   0.06752   0.74699   0.00000  Uiso   1.00
Si5    Si   -0.04546   0.05685   0.93565   0.00000  Uiso   1.00
Si6    Si    0.20089   0.24815   0.73463   0.00000  Uiso   1.00
Si7    Si    0.24731   0.34717   0.11784   0.00000  Uiso   1.00
Si8    Si   -0.01455   0.45843   0.25325   0.00000  Uiso   1.00
Si9    Si    0.20300   0.33243   0.41623   0.00000  Uiso   1.00
Si10   Si   -0.00769   0.52763   0.53065   0.00000  Uiso   1.00
Si11   Si    0.20450   0.56041   0.26791   0.00000  Uiso   1.00
Si12   Si   -0.08254   0.40147   0.88066   0.00000  Uiso   1.00
Si13   Si   -0.02196   0.80854   0.25314   0.00000  Uiso   1.00
Si14   Si    0.25831   0.93814   0.63441   0.00000  Uiso   1.00
Si15   Si    0.50348  -0.00723   0.10441   0.00000  Uiso   1.00
Si16   Si    0.30385   0.12097   0.26699   0.00000  Uiso   1.00
Si17   Si    0.53808   0.05301   0.42928   0.00000  Uiso   1.00
Si18   Si    0.49348   0.17060   0.32592   0.00000  Uiso   1.00
Si19   Si    0.34659   0.09898   0.86777   0.00000  Uiso   1.00
Si20   Si    0.57118   0.23260   0.64623   0.00000  Uiso   1.00
Si21   Si    0.36602   0.50592   0.21222   0.00000  Uiso   1.00
Si22   Si    0.53166   0.55632   0.02706   0.00000  Uiso   1.00
Si23   Si    0.52156   0.36555   0.39542   0.00000  Uiso   1.00
Si24   Si    0.52295   0.52379   0.31373   0.00000  Uiso   1.00
Si25   Si    0.51925   0.53042   0.61314   0.00000  Uiso   1.00
Si26   Si    0.48702   0.67209   0.14228   0.00000  Uiso   1.00
Si27   Si    0.46591   0.79822   0.04744   0.00000  Uiso   1.00
Si28   Si    0.52670   0.69952   0.40994   0.00000  Uiso   1.00
Si29   Si    0.40402   0.94319   0.53522   0.00000  Uiso   1.00
Si30   Si    0.52771   0.86479   0.34272   0.00000  Uiso   1.00
Si31   Si    0.26923   0.73992   0.98839   0.00000  Uiso   1.00
Si32   Si    0.54161   0.89626   0.61337   0.00000  Uiso   1.00
Si33   Si    0.75733  -0.08957   0.11825   0.00000  Uiso   1.00
Si34   Si    0.62766   0.13730   0.21311   0.00000  Uiso   1.00
Si35   Si    0.80696   0.07383   0.03718   0.00000  Uiso   1.00
Si36   Si    0.80152  -0.05047   0.42657   0.00000  Uiso   1.00
Si37   Si    0.68265   0.20172   0.52072   0.00000  Uiso   1.00
Si38   Si    0.85008   0.23392   0.60289   0.00000  Uiso   1.00
Si39   Si    0.67241   0.47878   0.24674   0.00000  Uiso   1.00
Si40   Si    0.79413   0.46614  -0.01881   0.00000  Uiso   1.00
Si41   Si    0.82384   0.36632   0.45106   0.00000  Uiso   1.00
Si42   Si    0.64901   0.52384   0.49274   0.00000  Uiso   1.00
Si43   Si    0.82215   0.48512   0.34587   0.00000  Uiso   1.00
Si44   Si    0.68023   0.56165   0.92571   0.00000  Uiso   1.00
Si45   Si    0.64513   0.81332   0.22837   0.00000  Uiso   1.00
Si46   Si    0.79150   0.66092   0.40530   0.00000  Uiso   1.00
Si47   Si    0.65814   0.82450   0.51406   0.00000  Uiso   1.00
Si48   Si    0.79331   0.79954   0.31265   0.00000  Uiso   1.00
Si49   Si    0.85067   0.68226   0.85746   0.00000  Uiso   1.00
Si50   Si    0.56257   0.79494   0.91301   0.00000  Uiso   1.00
Si51   Si    0.78398   0.83005   0.62721   0.00000  Uiso   1.00
C52    C     0.15128  -0.02713   0.12946   0.00000  Uiso   1.00
C53    C     0.18792   0.82753   0.17907   0.00000  Uiso   1.00
C54    C     0.14242   0.06541   0.51974   0.00000  Uiso   1.00
C55    C     0.09565   0.88076   0.42629   0.00000  Uiso   1.00
C56    C     0.28125   1.02803   0.42319   0.00000  Uiso   1.00
C57    C     0.05512   0.11548   0.28597   0.00000  Uiso   1.00
O58    O     0.12143   0.04702   0.38227   0.00000  Uiso   1.00
C59    C     0.13078   0.96553   0.78039   0.00000  Uiso   1.00
C60    C     0.00149  -0.02115   0.96459   0.00000  Uiso   1.00
C61    C     0.04471   0.18120   0.95255   0.00000  Uiso   1.00
C62    C     0.93321   0.03442   0.84457   0.00000  Uiso   1.00
C63    C     0.19518   0.26174   0.64370   0.00000  Uiso   1.00
O64    O     0.18308   0.14171   0.73580   0.00000  Uiso   1.00
C65    C     0.10581   0.27175   0.77667   0.00000  Uiso   1.00
C66    C     0.31409   0.32546   0.77189   0.00000  Uiso   1.00
C67    C     0.16375   0.26836   0.17646   0.00000  Uiso   1.00
C68    C     0.28975   0.28135   0.04816   0.00000  Uiso   1.00
C69    C     0.18345   0.40408   0.07688   0.00000  Uiso   1.00
C70    C    -0.03616   0.50404   0.17750   0.00000  Uiso   1.00
C71    C     0.95479   0.33459   0.23675   0.00000  Uiso   1.00
C72    C     0.11557   0.38086   0.40362   0.00000  Uiso   1.00
O73    O     0.16149   0.22238   0.40289   0.00000  Uiso   1.00
C74    C     0.24913   0.37216   0.49973   0.00000  Uiso   1.00
C75    C     0.08545   0.49698   0.55991   0.00000  Uiso   1.00
C76    C     0.03487   0.59842   0.45527   0.00000  Uiso   1.00
C77    C     0.95662   0.59758   0.59988   0.00000  Uiso   1.00
O78    O     0.09523   0.49790   0.27296   0.00000  Uiso   1.00
C79    C     0.28616   0.38161   0.35062   0.00000  Uiso   1.00
C80    C     0.24025   0.63815   0.34498   0.00000  Uiso   1.00
C81    C     0.21030   0.62405   0.19977   0.00000  Uiso   1.00
C82    C    -0.01899   0.39023   0.95319   0.00000  Uiso   1.00
C83    C    -0.00638   0.46825   0.81662   0.00000  Uiso   1.00
C84    C     0.85004   0.28370   0.83638   0.00000  Uiso   1.00
C85    C    -0.00703   0.71092   0.29399   0.00000  Uiso   1.00
O86    O     0.07383   0.89990   0.25114   0.00000  Uiso   1.00
C87    C     0.94880   0.76076   0.16453   0.00000  Uiso   1.00
C88    C     0.13654   0.86596   0.60409   0.00000  Uiso   1.00
C89    C     0.29057   0.86073   0.68446   0.00000  Uiso   1.00
O90    O     0.25930   1.03141   0.67946   0.00000  Uiso   1.00
C91    C     0.49180   0.06658   0.03932   0.00000  Uiso   1.00
C92    C     0.39915   0.95852   0.15469   0.00000  Uiso   1.00
O93    O     0.24992   0.01545   0.24417   0.00000  Uiso   1.00
C94    C     0.35090   0.19120   0.19299   0.00000  Uiso   1.00
O95    O     0.23682   0.15855   0.30824   0.00000  Uiso   1.00
O96    O     0.38631   0.13637   0.31358   0.00000  Uiso   1.00
O97    O     0.50764   0.11168   0.37883   0.00000  Uiso   1.00
O98    O     0.30640   0.11184   0.79799   0.00000  Uiso   1.00
C99    C     0.38959   0.00731   0.84734   0.00000  Uiso   1.00
C100   C     0.43617   0.20906   0.90364   0.00000  Uiso   1.00
C101   C     0.25396   0.06751   0.93279   0.00000  Uiso   1.00
C102   C     0.44278   0.18968   0.64864   0.00000  Uiso   1.00
C103   C     0.59664   0.17081   0.70718   0.00000  Uiso   1.00
C104   C     0.62031   0.35335   0.67401   0.00000  Uiso   1.00
O105   O     0.33390   0.42457   0.15606   0.00000  Uiso   1.00
O106   O     0.27551   0.50682   0.25318   0.00000  Uiso   1.00
C107   C     0.53035   0.44796   0.05566   0.00000  Uiso   1.00
C108   C     0.41916   0.52096   0.98451   0.00000  Uiso   1.00
C109   C     0.42972   0.31501   0.45330   0.00000  Uiso   1.00
O110   O     0.53438   0.28108   0.34964   0.00000  Uiso   1.00
O111   O     0.44605   0.49979   0.25377   0.00000  Uiso   1.00
O112   O     0.48983   0.43537   0.35524   0.00000  Uiso   1.00
C113   C     0.44141   0.40783   0.62201   0.00000  Uiso   1.00
C114   C     0.59981   0.56915   0.68630   0.00000  Uiso   1.00
C115   C     0.44858   0.59753   0.62220   0.00000  Uiso   1.00
O116   O     0.40309   0.59638   0.17629   0.00000  Uiso   1.00
O117   O     0.54050   0.62408   0.09188   0.00000  Uiso   1.00
O118   O     0.45587   0.74134   0.10962   0.00000  Uiso   1.00
O119   O     0.51616   0.90553   0.07009   0.00000  Uiso   1.00
C120   C     0.42823   0.63052   0.45813   0.00000  Uiso   1.00
O121   O     0.54322   0.62601   0.35509   0.00000  Uiso   1.00
C122   C     0.35097   0.83139   0.48827   0.00000  Uiso   1.00
O123   O     0.45568   1.01618   0.48406   0.00000  Uiso   1.00
O124   O     0.32620   0.96429   0.57508   0.00000  Uiso   1.00
C125   C     0.42726   0.84221   0.29002   0.00000  Uiso   1.00
O126   O     0.50343   0.78036   0.38311   0.00000  Uiso   1.00
O127   O     0.55435   0.96424   0.39044   0.00000  Uiso   1.00
C128   C     0.27597   0.67236   0.90933   0.00000  Uiso   1.00
O129   O     0.36280   0.78115   1.02813   0.00000  Uiso   1.00
C130   C     0.22615   0.83014   0.97694   0.00000  Uiso   1.00
C131   C     0.18264   0.64670   1.02896   0.00000  Uiso   1.00
O132   O     0.46623   0.93335   0.58948   0.00000  Uiso   1.00
C133   C     0.49682   0.82173   0.68175   0.00000  Uiso   1.00
C134   C     0.64153   0.99703   0.64563   0.00000  Uiso   1.00
C135   C     0.87453  -0.03715   0.15925   0.00000  Uiso   1.00
C136   C     0.74545   0.80618   0.06221   0.00000  Uiso   1.00
O137   O     0.58824   0.05694   0.15247   0.00000  Uiso   1.00
C138   C     0.70139   0.10902   0.26743   0.00000  Uiso   1.00
C139   C     0.69913   0.24527   0.17895   0.00000  Uiso   1.00
O140   O     0.54238   0.14850   0.25754   0.00000  Uiso   1.00
O141   O     0.85706   0.04368   0.97361   0.00000  Uiso   1.00
O142   O     0.75021  -0.01643   0.07713   0.00000  Uiso   1.00
C143   C     0.89428   0.16425   0.09357   0.00000  Uiso   1.00
C144   C     0.73102   0.12115   1.00368   0.00000  Uiso   1.00
C145   C     0.78708   0.04744   0.40021   0.00000  Uiso   1.00
C146   C     0.92455  -0.00663   0.44937   0.00000  Uiso   1.00
O147   O     0.63286   0.11891   0.46565   0.00000  Uiso   1.00
O148   O     0.60979   0.20875   0.57563   0.00000  Uiso   1.00
C149   C     0.95740   0.24955   0.55473   0.00000  Uiso   1.00
O150   O     0.75999   0.18518   0.56022   0.00000  Uiso   1.00
C151   C     0.85778   0.17040   0.66741   0.00000  Uiso   1.00
C152   C     0.85202   0.34696   0.64130   0.00000  Uiso   1.00
C153   C     0.58682   0.38141   0.19510   0.00000  Uiso   1.00
C154   C     0.74718   0.56071   0.18923   0.00000  Uiso   1.00
O155   O     0.61796   0.53003   0.28347   0.00000  Uiso   1.00
O156   O     0.84889   0.44594   0.91623   0.00000  Uiso   1.00
C157   C     0.73932   0.35796   0.02449   0.00000  Uiso   1.00
C158   C     0.88321   0.56808   0.03108   0.00000  Uiso   1.00
O159   O     0.73144   0.29716   0.48427   0.00000  Uiso   1.00
C160   C     0.87618   0.30102   0.39605   0.00000  Uiso   1.00
O161   O     0.90355   0.43303   0.50878   0.00000  Uiso   1.00
O162   O     0.61134   0.43516   0.44131   0.00000  Uiso   1.00
C163   C     0.73491   0.51046   0.54465   0.00000  Uiso   1.00
O164   O     0.57249   0.53880   0.54136   0.00000  Uiso   1.00
O165   O     0.91751   0.47587   0.31265   0.00000  Uiso   1.00
O166   O     0.73366   0.45551   0.29751   0.00000  Uiso   1.00
O167   O     0.79512   0.42813   0.40784   0.00000  Uiso   1.00
C168   C     0.60939   0.48891   0.85335   0.00000  Uiso   1.00
O169   O     0.71060   0.48961   0.95736   0.00000  Uiso   1.00
O170   O     0.62036   0.59466   0.97832   0.00000  Uiso   1.00
O171   O     0.55887   0.72784   0.19945   0.00000  Uiso   1.00
O172   O     0.68554   0.88203   0.17484   0.00000  Uiso   1.00
O173   O     0.61370   0.86367   0.29495   0.00000  Uiso   1.00
O174   O     0.70227   0.61209   0.45401   0.00000  Uiso   1.00
O175   O     0.83772   0.58936   0.37417   0.00000  Uiso   1.00
C176   C     0.87639   0.75558   0.45654   0.00000  Uiso   1.00
O177   O     0.61559   0.74364   0.45872   0.00000  Uiso   1.00
O178   O     0.72960   0.91445   0.48453   0.00000  Uiso   1.00
O179   O     0.57629   0.85031   0.54809   0.00000  Uiso   1.00
O180   O     0.89884   0.83175   0.28767   0.00000  Uiso   1.00
O181   O     0.72973   0.78702   0.24963   0.00000  Uiso   1.00
O182   O     0.76679   0.70499   0.34680   0.00000  Uiso   1.00
O183   O     0.77166   0.86956   0.36753   0.00000  Uiso   1.00
O184   O     0.76828   0.64646   0.90731   0.00000  Uiso   1.00
C185   C     0.83616   0.58794   0.78915   0.00000  Uiso   1.00
C186   C     0.96102   0.71393   0.89501   0.00000  Uiso   1.00
C187   C     0.53062   0.68843   0.85272   0.00000  Uiso   1.00
C188   C     0.69133   0.84727   0.91412   0.00000  Uiso   1.00
C189   C     0.53742   0.89866   0.89227   0.00000  Uiso   1.00
O190   O     0.51452   0.76676   0.98310   0.00000  Uiso   1.00
C191   C     0.84084   0.74860   0.62358   0.00000  Uiso   1.00
O192   O     0.70428   0.79339   0.57149   0.00000  Uiso   1.00
C193   C     0.85330   0.78560   0.82388   0.00000  Uiso   1.00
C194   C     0.73406   0.84888   0.70894   0.00000  Uiso   1.00
C195   C     0.87641   0.94805   0.61210   0.00000  Uiso   1.00
H196   H     0.21919  -0.00103   0.10652   0.00000  Uiso   1.00
H197   H     0.12915   0.03234   0.13832   0.00000  Uiso   1.00
H198   H     0.10805  -0.07868   0.08995   0.00000  Uiso   1.00
H199   H     0.12147   0.76487   0.17194   0.00000  Uiso   1.00
H200   H     0.23596   0.82091   0.21343   0.00000  Uiso   1.00
H201   H     0.21774   0.83730   0.12887   0.00000  Uiso   1.00
H202   H     0.19967   0.06891   0.54786   0.00000  Uiso   1.00
H203   H     0.08604   0.03106   0.55257   0.00000  Uiso   1.00
H204   H     0.14072   0.12689   0.50700   0.00000  Uiso   1.00
H205   H     0.14758   0.84539   0.41439   0.00000  Uiso   1.00
H206   H     0.04746   0.86996   0.38548   0.00000  Uiso   1.00
H207   H     0.05833   0.85402   0.46987   0.00000  Uiso   1.00
H208   H     0.32601   1.10144   0.43289   0.00000  Uiso   1.00
H209   H     0.28768   1.00313   0.37105   0.00000  Uiso   1.00
H210   H     0.29132   0.98215   0.45594   0.00000  Uiso   1.00
H211   H    -0.01612   0.06901   0.29681   0.00000  Uiso   1.00
H212   H     0.07819   0.09037   0.24345   0.00000  Uiso   1.00
H213   H     0.05082   0.18111   0.27754   0.00000  Uiso   1.00
H214   H     0.14780   0.90401   0.77851   0.00000  Uiso   1.00
H215   H     0.07243   0.94594   0.74693   0.00000  Uiso   1.00
H216   H     0.10391   0.97937   0.82901   0.00000  Uiso   1.00
H217   H    -0.05110  -0.09032   0.95724   0.00000  Uiso   1.00
H218   H     0.02819   0.01114   1.01412   0.00000  Uiso   1.00
H219   H     0.06402  -0.01881   0.93419   0.00000  Uiso   1.00
H220   H     0.02061   0.22893   0.93289   0.00000  Uiso   1.00
H221   H     0.10754   0.18722   0.92468   0.00000  Uiso   1.00
H222   H     0.05347   0.20867   1.00661   0.00000  Uiso   1.00
H223   H     0.99678   0.03035   0.81929   0.00000  Uiso   1.00
H224   H     0.91560   0.09309   0.83274   0.00000  Uiso   1.00
H225   H     0.88284  -0.03331   0.83494   0.00000  Uiso   1.00
H226   H     0.20381   0.33274   0.64640   0.00000  Uiso   1.00
H227   H     0.13659   0.21617   0.61438   0.00000  Uiso   1.00
H228   H     0.25489   0.25753   0.61600   0.00000  Uiso   1.00
H229   H     0.04500   0.25189   0.74550   0.00000  Uiso   1.00
H230   H     0.13137   0.34442   0.78959   0.00000  Uiso   1.00
H231   H     0.08771   0.22867   0.81774   0.00000  Uiso   1.00
H232   H     0.32249   0.33340   0.82552   0.00000  Uiso   1.00
H233   H     0.33160   0.39087   0.74708   0.00000  Uiso   1.00
H234   H     0.36342   0.29977   0.74918   0.00000  Uiso   1.00
H235   H     0.13613   0.31112   0.20854   0.00000  Uiso   1.00
H236   H     0.19895   0.23755   0.20233   0.00000  Uiso   1.00
H237   H     0.10355   0.21511   0.15119   0.00000  Uiso   1.00
H238   H     0.23312   0.21686   0.02561   0.00000  Uiso   1.00
H239   H     0.33297   0.25020   0.07024   0.00000  Uiso   1.00
H240   H     0.32280   0.32029   0.00579   0.00000  Uiso   1.00
H241   H     0.22980   0.47653   0.07578   0.00000  Uiso   1.00
H242   H     0.11967   0.38929   0.10770   0.00000  Uiso   1.00
H243   H     0.17093   0.36750   0.02458   0.00000  Uiso   1.00
H244   H     0.00458   0.48387   0.13591   0.00000  Uiso   1.00
H245   H    -0.01192   0.57663   0.18389   0.00000  Uiso   1.00
H246   H    -0.10994   0.46664   0.16512   0.00000  Uiso   1.00
H247   H     0.96879   0.31980   0.18387   0.00000  Uiso   1.00
H248   H     0.88755   0.30235   0.25974   0.00000  Uiso   1.00
H249   H     1.00223   0.31866   0.26467   0.00000  Uiso   1.00
H250   H     0.05086   0.33923   0.42469   0.00000  Uiso   1.00
H251   H     0.10676   0.38122   0.34878   0.00000  Uiso   1.00
H252   H     0.14051   0.45275   0.42505   0.00000  Uiso   1.00
H253   H     0.19026   0.37399   0.53271   0.00000  Uiso   1.00
H254   H     0.30276   0.44334   0.50369   0.00000  Uiso   1.00
H255   H     0.27388   0.31835   0.51500   0.00000  Uiso   1.00
H256   H     0.08950   0.43748   0.53334   0.00000  Uiso   1.00
H257   H     0.07774   0.47688   0.61074   0.00000  Uiso   1.00
H258   H     0.15194   0.55523   0.55326   0.00000  Uiso   1.00
H259   H    -0.01273   0.63252   0.44780   0.00000  Uiso   1.00
H260   H     0.02560   0.54794   0.41043   0.00000  Uiso   1.00
H261   H     0.10157   0.65082   0.46758   0.00000  Uiso   1.00
H262   H     1.02120   0.65499   0.62020   0.00000  Uiso   1.00
H263   H     0.91049   0.54809   0.63749   0.00000  Uiso   1.00
H264   H     0.92198   0.63621   0.57597   0.00000  Uiso   1.00
H265   H     0.33049   0.34260   0.34621   0.00000  Uiso   1.00
H266   H     0.32782   0.46064   0.35469   0.00000  Uiso   1.00
H267   H     0.24419   0.35983   0.30269   0.00000  Uiso   1.00
H268   H     0.31843   0.66725   0.34647   0.00000  Uiso   1.00
H269   H     0.21079   0.59711   0.38893   0.00000  Uiso   1.00
H270   H     0.21253   0.69394   0.34371   0.00000  Uiso   1.00
H271   H     0.16325   0.66017   0.21068   0.00000  Uiso   1.00
H272   H     0.17891   0.56898   0.16016   0.00000  Uiso   1.00
H273   H     0.28305   0.66274   0.18460   0.00000  Uiso   1.00
H274   H     0.05629   0.39722   0.94437   0.00000  Uiso   1.00
H275   H    -0.05708   0.32453   0.97374   0.00000  Uiso   1.00
H276   H    -0.00492   0.44799   0.99144   0.00000  Uiso   1.00
H277   H     0.02250   0.42545   0.78509   0.00000  Uiso   1.00
H278   H     0.04007   0.53656   0.83706   0.00000  Uiso   1.00
H279   H    -0.05420   0.47212   0.78194   0.00000  Uiso   1.00
H280   H     0.89802   0.25063   0.81866   0.00000  Uiso   1.00
H281   H     0.81263   0.28821   0.78925   0.00000  Uiso   1.00
H282   H     0.79563   0.24298   0.86812   0.00000  Uiso   1.00
H283   H    -0.00994   0.72314   0.34622   0.00000  Uiso   1.00
H284   H     0.06980   0.71745   0.28461   0.00000  Uiso   1.00
H285   H    -0.05750   0.64072   0.27617   0.00000  Uiso   1.00
H286   H     0.97102   0.70250   0.14968   0.00000  Uiso   1.00
H287   H     0.97798   0.80962   0.12471   0.00000  Uiso   1.00
H288   H     0.86996   0.73646   0.15653   0.00000  Uiso   1.00
H289   H     0.08537   0.84557   0.64416   0.00000  Uiso   1.00
H290   H     0.13783   0.80923   0.57014   0.00000  Uiso   1.00
H291   H     0.11823   0.91454   0.57581   0.00000  Uiso   1.00
H292   H     0.35342   0.90511   0.70887   0.00000  Uiso   1.00
H293   H     0.29090   0.80221   0.64791   0.00000  Uiso   1.00
H294   H     0.22712   0.82676   0.71893   0.00000  Uiso   1.00
H295   H     0.50954   0.13996   0.06586   0.00000  Uiso   1.00
H296   H     0.42410   0.03881   0.01782   0.00000  Uiso   1.00
H297   H     0.53599   0.06245  -0.00098   0.00000  Uiso   1.00
H298   H     0.34947   0.97694   0.13240   0.00000  Uiso   1.00
H299   H     0.41987   1.00323   0.20288   0.00000  Uiso   1.00
H300   H     0.38660   0.88735   0.15678   0.00000  Uiso   1.00
H301   H     0.40750   0.16980   0.17025   0.00000  Uiso   1.00
H302   H     0.37727   0.26269   0.21343   0.00000  Uiso   1.00
H303   H     0.29376   0.16695   0.15658   0.00000  Uiso   1.00
H304   H     0.44794   0.03610   0.81093   0.00000  Uiso   1.00
H305   H     0.33566  -0.05795   0.82838   0.00000  Uiso   1.00
H306   H     0.41412  -0.00075   0.89945   0.00000  Uiso   1.00
H307   H     0.41557   0.27002   0.90547   0.00000  Uiso   1.00
H308   H     0.49491   0.22641   0.86719   0.00000  Uiso   1.00
H309   H     0.46660   0.20062   0.95160   0.00000  Uiso   1.00
H310   H     0.22010   0.11773   0.93663   0.00000  Uiso   1.00
H311   H     0.28945   0.07986   0.98116   0.00000  Uiso   1.00
H312   H     0.21000  -0.00830   0.91923   0.00000  Uiso   1.00
H313   H     0.41769   0.15703   0.69523   0.00000  Uiso   1.00
H314   H     0.42090   0.13986   0.60453   0.00000  Uiso   1.00
H315   H     0.41890   0.24605   0.64631   0.00000  Uiso   1.00
H316   H     0.66844   0.18083   0.70644   0.00000  Uiso   1.00
H317   H     0.55088   0.09539   0.70346   0.00000  Uiso   1.00
H318   H     0.58809   0.20140   0.75878   0.00000  Uiso   1.00
H319   H     0.69201   0.37673   0.68896   0.00000  Uiso   1.00
H320   H     0.57829   0.36635   0.71571   0.00000  Uiso   1.00
H321   H     0.61373   0.38722   0.63002   0.00000  Uiso   1.00
H322   H     0.48427   0.42235   0.09972   0.00000  Uiso   1.00
H323   H     0.59982   0.47017   0.07245   0.00000  Uiso   1.00
H324   H     0.51952   0.39413   0.01310   0.00000  Uiso   1.00
H325   H     0.36226   0.47465   1.01770   0.00000  Uiso   1.00
H326   H     0.42315   0.47932   0.93983   0.00000  Uiso   1.00
H327   H     0.40980   0.58450   0.97527   0.00000  Uiso   1.00
H328   H     0.44075   0.27229   0.49106   0.00000  Uiso   1.00
H329   H     0.36671   0.27332   0.42632   0.00000  Uiso   1.00
H330   H     0.42497   0.37474   0.48283   0.00000  Uiso   1.00
H331   H     0.46274   0.36365   0.58504   0.00000  Uiso   1.00
H332   H     0.36254   0.39212   0.61445   0.00000  Uiso   1.00
H333   H     0.45075   0.38621   0.66883   0.00000  Uiso   1.00
H334   H     0.64589   0.52896   0.68212   0.00000  Uiso   1.00
H335   H     0.55852   0.56397   0.73319   0.00000  Uiso   1.00
H336   H     0.64598   0.64105   0.68223   0.00000  Uiso   1.00
H337   H     0.48610   0.66540   0.59705   0.00000  Uiso   1.00
H338   H     0.43017   0.61215   0.67843   0.00000  Uiso   1.00
H339   H     0.37975   0.55822   0.60127   0.00000  Uiso   1.00
H340   H     0.43943   0.56864   0.46887   0.00000  Uiso   1.00
H341   H     0.36289   0.61354   0.43208   0.00000  Uiso   1.00
H342   H     0.42775   0.66965   0.50299   0.00000  Uiso   1.00
H343   H     0.39804   0.81498   0.45291   0.00000  Uiso   1.00
H344   H     0.29583   0.82685   0.45577   0.00000  Uiso   1.00
H345   H     0.31473   0.77926   0.52209   0.00000  Uiso   1.00
H346   H     0.39702   0.76520   0.27174   0.00000  Uiso   1.00
H347   H     0.45386   0.87433   0.24412   0.00000  Uiso   1.00
H348   H     0.37701   0.86688   0.31877   0.00000  Uiso   1.00
H349   H     0.20777   0.63912   0.88604   0.00000  Uiso   1.00
H350   H     0.30144   0.61987   0.91578   0.00000  Uiso   1.00
H351   H     0.32331   0.72163   0.87128   0.00000  Uiso   1.00
H352   H     0.26619   0.88904   1.00377   0.00000  Uiso   1.00
H353   H     0.15579   0.80697   1.00181   0.00000  Uiso   1.00
H354   H     0.21929   0.83529   0.92593   0.00000  Uiso   1.00
H355   H     0.11690   0.61604   1.00708   0.00000  Uiso   1.00
H356   H     0.16353   0.67045   1.07806   0.00000  Uiso   1.00
H357   H     0.21138   0.59585   1.03708   0.00000  Uiso   1.00
H358   H     0.42017   0.78125   0.67327   0.00000  Uiso   1.00
H359   H     0.50988   0.85586   0.73083   0.00000  Uiso   1.00
H360   H     0.52919   0.77199   0.68512   0.00000  Uiso   1.00
H361   H     0.63612   1.05246   0.62161   0.00000  Uiso   1.00
H362   H     0.70660   0.99339   0.62261   0.00000  Uiso   1.00
H363   H     0.63688   1.00577   0.70044   0.00000  Uiso   1.00
H364   H     0.87879  -0.09027   0.18830   0.00000  Uiso   1.00
H365   H     0.88374   0.02834   0.19048   0.00000  Uiso   1.00
H366   H     0.93225  -0.02549   0.12191   0.00000  Uiso   1.00
H367   H     0.79925   0.82458   0.02613   0.00000  Uiso   1.00
H368   H     0.67606   0.77441   0.03771   0.00000  Uiso   1.00
H369   H     0.75224   0.75462   0.09257   0.00000  Uiso   1.00
H370   H     0.67928   0.03303   0.26198   0.00000  Uiso   1.00
H371   H     0.68336   0.12422   0.32199   0.00000  Uiso   1.00
H372   H     0.77832   0.14229   0.25977   0.00000  Uiso   1.00
H373   H     0.65652   0.25280   0.13695   0.00000  Uiso   1.00
H374   H     0.76772   0.24514   0.16215   0.00000  Uiso   1.00
H375   H     0.71499   0.29552   0.22329   0.00000  Uiso   1.00
H376   H     0.85797   0.16070   0.14210   0.00000  Uiso   1.00
H377   H     0.91395   0.23541   0.07081   0.00000  Uiso   1.00
H378   H     0.95330   0.14680   0.10200   0.00000  Uiso   1.00
H379   H     0.78244   0.18342   0.98169   0.00000  Uiso   1.00
H380   H     0.68377   0.13495   1.04498   0.00000  Uiso   1.00
H381   H     0.69191   0.06947   0.96567   0.00000  Uiso   1.00
H382   H     0.83417   0.06516   0.35877   0.00000  Uiso   1.00
H383   H     0.80761   0.10459   0.43987   0.00000  Uiso   1.00
H384   H     0.72099   0.03094   0.38643   0.00000  Uiso   1.00
H385   H     0.96375   0.04215   0.41400   0.00000  Uiso   1.00
H386   H     0.95134  -0.06052   0.44911   0.00000  Uiso   1.00
H387   H     0.93541   0.04077   0.49537   0.00000  Uiso   1.00
H388   H     0.96535   0.29284   0.51545   0.00000  Uiso   1.00
H389   H     0.94757   0.17861   0.53127   0.00000  Uiso   1.00
H390   H     1.01715   0.27650   0.58827   0.00000  Uiso   1.00
H391   H     0.91846   0.21771   0.69739   0.00000  Uiso   1.00
H392   H     0.87665   0.11293   0.64723   0.00000  Uiso   1.00
H393   H     0.79582   0.14607   0.69624   0.00000  Uiso   1.00
H394   H     0.92160   0.38977   0.64882   0.00000  Uiso   1.00
H395   H     0.81315   0.32922   0.68799   0.00000  Uiso   1.00
H396   H     0.81677   0.37854   0.61036   0.00000  Uiso   1.00
H397   H     0.56600   0.31610   0.21443   0.00000  Uiso   1.00
H398   H     0.60938   0.37725   0.14418   0.00000  Uiso   1.00
H399   H     0.52458   0.39938   0.19647   0.00000  Uiso   1.00
H400   H     0.81981   0.56250   0.18889   0.00000  Uiso   1.00
H401   H     0.75586   0.63079   0.19825   0.00000  Uiso   1.00
H402   H     0.72285   0.52774   0.13859   0.00000  Uiso   1.00
H403   H     0.68616   0.29819  -0.00451   0.00000  Uiso   1.00
H404   H     0.70518   0.37107   0.06883   0.00000  Uiso   1.00
H405   H     0.78776   0.33014   0.04094   0.00000  Uiso   1.00
H406   H     0.86988   0.57114   0.08564   0.00000  Uiso   1.00
H407   H     0.88477   0.63597   0.01414   0.00000  Uiso   1.00
H408   H     0.95345   0.56521   0.02507   0.00000  Uiso   1.00
H409   H     0.82841   0.27070   0.35270   0.00000  Uiso   1.00
H410   H     0.88840   0.25235   0.42138   0.00000  Uiso   1.00
H411   H     0.93956   0.35675   0.37905   0.00000  Uiso   1.00
H412   H     0.79680   0.53678   0.51464   0.00000  Uiso   1.00
H413   H     0.71561   0.43270   0.55080   0.00000  Uiso   1.00
H414   H     0.74810   0.55679   0.58888   0.00000  Uiso   1.00
H415   H     0.62972   0.43065   0.83664   0.00000  Uiso   1.00
H416   H     0.62041   0.52773   0.81092   0.00000  Uiso   1.00
H417   H     0.53415   0.46185   0.85813   0.00000  Uiso   1.00
H418   H     0.83552   0.78856   0.48881   0.00000  Uiso   1.00
H419   H     0.92030   0.80606   0.42326   0.00000  Uiso   1.00
H420   H     0.91743   0.73931   0.48690   0.00000  Uiso   1.00
H421   H     0.82135   0.52583   0.81415   0.00000  Uiso   1.00
H422   H     0.90922   0.61267   0.76626   0.00000  Uiso   1.00
H423   H     0.77971   0.57394   0.75047   0.00000  Uiso   1.00
H424   H     1.00984   0.73296   0.85553   0.00000  Uiso   1.00
H425   H     0.96554   0.65585   0.91622   0.00000  Uiso   1.00
H426   H     0.97054   0.76938   0.93651   0.00000  Uiso   1.00
H427   H     0.45447   0.65852   0.84535   0.00000  Uiso   1.00
H428   H     0.54878   0.63517   0.87436   0.00000  Uiso   1.00
H429   H     0.56041   0.69897   0.80052   0.00000  Uiso   1.00
H430   H     0.71502   0.90377   0.95607   0.00000  Uiso   1.00
H431   H     0.70992   0.86613   0.86620   0.00000  Uiso   1.00
H432   H     0.71204   0.78808   0.92296   0.00000  Uiso   1.00
H433   H     0.45977   0.87530   0.89164   0.00000  Uiso   1.00
H434   H     0.57212   0.92923   0.84598   0.00000  Uiso   1.00
H435   H     0.56651   0.95036   0.93689   0.00000  Uiso   1.00
H436   H     0.82620   0.71371   0.67111   0.00000  Uiso   1.00
H437   H     0.91761   0.78154   0.61562   0.00000  Uiso   1.00
H438   H     0.81883   0.69930   0.57880   0.00000  Uiso   1.00
H439   H     0.78354   0.76061   0.80250   0.00000  Uiso   1.00
H440   H     0.90221   0.79619   0.78488   0.00000  Uiso   1.00
H441   H     0.88206   0.84536   0.85878   0.00000  Uiso   1.00
H442   H     0.68926   0.88801   0.69938   0.00000  Uiso   1.00
H443   H     0.79133   0.88882   0.74153   0.00000  Uiso   1.00
H444   H     0.69464   0.78512   0.72989   0.00000  Uiso   1.00
H445   H     0.93211   0.93991   0.58255   0.00000  Uiso   1.00
H446   H     0.90959   0.98905   0.65700   0.00000  Uiso   1.00
H447   H     0.84461   0.98509   0.58561   0.00000  Uiso   1.00
loop_
_geom_bond_atom_site_label_1
_geom_bond_atom_site_label_2
_geom_bond_distance
_geom_bond_site_symmetry_2
_ccdc_geom_bond_type
Si1    C52     1.863   .     S
Si1    O93     1.594   .     S
Si1    C53     1.864   1_545 S
Si1    O86     1.565   1_545 S
Si2    C54     1.836   .     S
Si2    O58     1.596   .     S
Si2    C55     1.859   1_545 S
Si2    C56     1.862   1_545 S
Si3    C57     1.828   .     S
Si3    O58     1.535   .     S
Si3    O73     1.625   .     S
Si3    O95     1.582   .     S
Si4    O64     1.581   .     S
Si4    O98     1.598   .     S
Si4    C59     1.866   1_545 S
Si4    O90     1.591   1_545 S
Si5    C60     1.838   .     S
Si5    C61     1.926   .     S
Si5    C62     1.867   1_455 S
Si5    O141    1.630   1_455 S
Si6    C63     1.897   .     S
Si6    O64     1.603   .     S
Si6    C65     1.830   .     S
Si6    C66     1.861   .     S
Si7    C67     1.896   .     S
Si7    C68     1.910   .     S
Si7    C69     1.876   .     S
Si7    O105    1.595   .     S
Si8    C70     1.879   .     S
Si8    O78     1.647   .     S
Si8    C71     1.823   1_455 S
Si8    O165    1.642   1_455 S
Si9    C72     1.868   .     S
Si9    O73     1.600   .     S
Si9    C74     1.824   .     S
Si9    C79     1.830   .     S
Si10   C75     1.866   .     S
Si10   C76     1.938   .     S
Si10   C77     1.890   1_455 S
Si10   O161    1.631   1_455 S
Si11   O78     1.618   .     S
Si11   C80     1.840   .     S
Si11   C81     1.787   .     S
Si11   O106    1.652   .     S
Si12   C82     1.892   .     S
Si12   C83     1.846   .     S
Si12   C84     1.890   1_455 S
Si12   O156    1.610   1_455 S
Si13   C85     1.940   .     S
Si13   O86     1.631   .     S
Si13   C87     1.877   1_455 S
Si13   O180    1.548   1_455 S
Si14   C88     1.899   .     S
Si14   C89     1.912   .     S
Si14   O90     1.642   .     S
Si14   O124    1.548   .     S
Si15   C91     1.930   .     S
Si15   O137    1.616   .     S
Si15   C92     1.813   1_545 S
Si15   O119    1.557   1_545 S
Si16   O93     1.574   .     S
Si16   C94     1.917   .     S
Si16   O95     1.569   .     S
Si16   O96     1.574   .     S
Si17   O97     1.669   .     S
Si17   O147    1.606   .     S
Si17   O123    1.632   1_545 S
Si17   O127    1.637   1_545 S
Si18   O96     1.583   .     S
Si18   O97     1.585   .     S
Si18   O110    1.633   .     S
Si18   O140    1.622   .     S
Si19   O98     1.651   .     S
Si19   C99     1.834   .     S
Si19   C100    1.855   .     S
Si19   C101    1.870   .     S
Si20   C102    1.864   .     S
Si20   C103    1.820   .     S
Si20   C104    1.793   .     S
Si20   O148    1.591   .     S
Si21   O105    1.558   .     S
Si21   O106    1.617   .     S
Si21   O111    1.598   .     S
Si21   O116    1.573   .     S
Si22   C107    1.873   .     S
Si22   O117    1.575   .     S
Si22   C108    1.866   1_554 S
Si22   O170    1.620   1_554 S
Si23   C109    1.800   .     S
Si23   O110    1.614   .     S
Si23   O112    1.687   .     S
Si23   O162    1.662   .     S
Si24   O111    1.670   .     S
Si24   O112    1.615   .     S
Si24   O121    1.656   .     S
Si24   O155    1.559   .     S
Si25   C113    1.870   .     S
Si25   C114    1.892   .     S
Si25   C115    1.813   .     S
Si25   O164    1.635   .     S
Si26   O116    1.585   .     S
Si26   O117    1.604   .     S
Si26   O118    1.590   .     S
Si26   O171    1.590   .     S
Si27   O118    1.604   .     S
Si27   O119    1.591   .     S
Si27   O129    1.603   1_554 S
Si27   O190    1.608   1_554 S
Si28   C120    1.820   .     S
Si28   O121    1.605   .     S
Si28   O126    1.626   .     S
Si28   O177    1.629   .     S
Si29   C122    1.810   .     S
Si29   O123    1.591   .     S
Si29   O124    1.559   .     S
Si29   O132    1.577   .     S
Si30   C125    1.853   .     S
Si30   O126    1.561   .     S
Si30   O127    1.664   .     S
Si30   O173    1.629   .     S
Si31   C128    1.847   .     S
Si31   O129    1.582   .     S
Si31   C130    1.854   .     S
Si31   C131    1.817   .     S
Si32   O132    1.639   .     S
Si32   C133    1.857   .     S
Si32   C134    1.829   .     S
Si32   O179    1.613   .     S
Si33   C135    1.896   .     S
Si33   O142    1.550   .     S
Si33   C136    1.846   1_545 S
Si33   O172    1.544   1_545 S
Si34   O137    1.619   .     S
Si34   C138    1.857   .     S
Si34   C139    1.832   .     S
Si34   O140    1.636   .     S
Si35   O142    1.641   .     S
Si35   C143    1.869   .     S
Si35   O141    1.602   1_554 S
Si35   C144    1.841   1_554 S
Si36   C145    1.802   .     S
Si36   C146    1.850   .     S
Si36   O178    1.579   1_545 S
Si36   O183    1.582   1_545 S
Si37   O147    1.591   .     S
Si37   O148    1.585   .     S
Si37   O150    1.617   .     S
Si37   O159    1.648   .     S
Si38   C149    1.852   .     S
Si38   O150    1.574   .     S
Si38   C151    1.783   .     S
Si38   C152    1.861   .     S
Si39   C153    1.854   .     S
Si39   C154    1.855   .     S
Si39   O155    1.516   .     S
Si39   O166    1.618   .     S
Si40   C157    1.890   .     S
Si40   C158    1.895   .     S
Si40   O156    1.608   1_554 S
Si40   O169    1.617   1_554 S
Si41   O159    1.608   .     S
Si41   C160    1.820   .     S
Si41   O161    1.701   .     S
Si41   O167    1.594   .     S
Si42   O162    1.577   .     S
Si42   C163    1.853   .     S
Si42   O164    1.591   .     S
Si42   O174    1.595   .     S
Si43   O165    1.668   .     S
Si43   O166    1.631   .     S
Si43   O167    1.578   .     S
Si43   O175    1.613   .     S
Si44   C168    1.872   .     S
Si44   O169    1.611   .     S
Si44   O170    1.568   .     S
Si44   O184    1.569   .     S
Si45   O171    1.574   .     S
Si45   O172    1.560   .     S
Si45   O173    1.644   .     S
Si45   O181    1.641   .     S
Si46   O174    1.651   .     S
Si46   O175    1.631   .     S
Si46   C176    1.825   .     S
Si46   O182    1.587   .     S
Si47   O177    1.557   .     S
Si47   O178    1.589   .     S
Si47   O179    1.603   .     S
Si47   O192    1.629   .     S
Si48   O180    1.608   .     S
Si48   O181    1.616   .     S
Si48   O182    1.621   .     S
Si48   O183    1.601   .     S
Si49   O184    1.564   .     S
Si49   C185    1.870   .     S
Si49   C186    1.797   .     S
Si49   C193    1.836   .     S
Si50   C187    1.876   .     S
Si50   C188    1.866   .     S
Si50   C189    1.937   .     S
Si50   O190    1.602   .     S
Si51   C191    1.837   .     S
Si51   O192    1.620   .     S
Si51   C194    1.842   .     S
Si51   C195    1.912   .     S
C52    H196    1.085   .     S
C52    H197    1.123   .     S
C52    H198    1.115   .     S
C53    H199    1.126   .     S
C53    H200    1.101   .     S
C53    H201    1.101   .     S
C53    Si1     1.864   1_565 S
C54    H202    1.075   .     S
C54    H203    1.082   .     S
C54    H204    1.050   .     S
C55    H205    1.165   .     S
C55    H206    1.108   .     S
C55    H207    1.070   .     S
C55    Si2     1.859   1_565 S
C56    H208    1.098   .     S
C56    H209    1.100   .     S
C56    H210    1.103   .     S
C56    Si2     1.862   1_565 S
C57    H211    1.100   .     S
C57    H212    1.019   .     S
C57    H213    1.105   .     S
C59    H214    1.108   .     S
C59    H215    1.095   .     S
C59    H216    1.087   .     S
C59    Si4     1.866   1_565 S
C60    H217    1.082   .     S
C60    H218    1.099   .     S
C60    H219    1.125   .     S
C61    H220    1.094   .     S
C61    H221    1.090   .     S
C61    H222    1.128   .     S
C62    H223    1.123   .     S
C62    H224    1.127   .     S
C62    H225    1.057   .     S
C62    Si5     1.867   1_655 S
C63    H226    1.076   .     S
C63    H227    1.078   .     S
C63    H228    1.091   .     S
C65    H229    1.096   .     S
C65    H230    1.065   .     S
C65    H231    1.096   .     S
C66    H232    1.092   .     S
C66    H233    1.136   .     S
C66    H234    1.074   .     S
C67    H235    1.084   .     S
C67    H236    1.064   .     S
C67    H237    1.094   .     S
C68    H238    1.126   .     S
C68    H239    1.125   .     S
C68    H240    1.103   .     S
C69    H241    1.094   .     S
C69    H242    1.113   .     S
C69    H243    1.137   .     S
C70    H244    1.127   .     S
C70    H245    1.055   .     S
C70    H246    1.105   .     S
C71    H247    1.102   .     S
C71    H248    1.085   .     S
C71    H249    1.085   .     S
C71    Si8     1.823   1_655 S
C72    H250    1.071   .     S
C72    H251    1.132   .     S
C72    H252    1.093   .     S
C74    H253    1.123   .     S
C74    H254    1.109   .     S
C74    H255    1.149   .     S
C75    H256    1.055   .     S
C75    H257    1.103   .     S
C75    H258    1.104   .     S
C76    H259    1.111   .     S
C76    H260    1.116   .     S
C76    H261    1.072   .     S
C77    H262    1.123   .     S
C77    H263    1.166   .     S
C77    H264    1.130   .     S
C77    Si10    1.890   1_655 S
C79    H265    1.098   .     S
C79    H266    1.159   .     S
C79    H267    1.148   .     S
C80    H268    1.134   .     S
C80    H269    1.136   .     S
C80    H270    1.136   .     S
C81    H271    1.104   .     S
C81    H272    1.092   .     S
C81    H273    1.112   .     S
C82    H274    1.154   .     S
C82    H275    1.097   .     S
C82    H276    1.089   .     S
C83    H277    1.091   .     S
C83    H278    1.088   .     S
C83    H279    1.084   .     S
C84    H280    1.104   .     S
C84    H281    1.176   .     S
C84    H282    1.081   .     S
C84    Si12    1.890   1_655 S
C85    H283    1.058   .     S
C85    H284    1.182   .     S
C85    H285    1.114   .     S
O86    Si1     1.565   1_565 S
C87    H286    1.118   .     S
C87    H287    1.137   .     S
C87    H288    1.162   .     S
C87    Si13    1.877   1_655 S
C88    H289    1.097   .     S
C88    H290    1.075   .     S
C88    H291    1.144   .     S
C89    H292    1.070   .     S
C89    H293    1.121   .     S
C89    H294    1.170   .     S
O90    Si4     1.591   1_565 S
C91    H295    1.157   .     S
C91    H296    1.077   .     S
C91    H297    1.059   .     S
C92    H298    1.076   .     S
C92    H299    1.122   .     S
C92    H300    1.073   .     S
C92    Si15    1.813   1_565 S
C94    H301    1.133   .     S
C94    H302    1.081   .     S
C94    H303    1.114   .     S
C99    H304    1.129   .     S
C99    H305    1.091   .     S
C99    H306    1.185   .     S
C100   H307    1.133   .     S
C100   H308    1.120   .     S
C100   H309    1.154   .     S
C101   H310    1.117   .     S
C101   H311    1.117   .     S
C101   H312    1.135   .     S
C102   H313    1.111   .     S
C102   H314    1.095   .     S
C102   H315    1.107   .     S
C103   H316    1.079   .     S
C103   H317    1.123   .     S
C103   H318    1.127   .     S
C104   H319    1.090   .     S
C104   H320    1.098   .     S
C104   H321    1.126   .     S
C107   H322    1.130   .     S
C107   H323    1.072   .     S
C107   H324    1.111   .     S
C108   H325    1.153   .     S
C108   H326    1.073   .     S
C108   H327    1.114   .     S
C108   Si22    1.866   1_556 S
C109   H328    1.145   .     S
C109   H329    1.087   .     S
C109   H330    1.088   .     S
C113   H331    1.098   .     S
C113   H332    1.184   .     S
C113   H333    1.085   .     S
C114   H334    1.137   .     S
C114   H335    1.117   .     S
C114   H336    1.095   .     S
C115   H337    1.168   .     S
C115   H338    1.183   .     S
C115   H339    1.096   .     S
O119   Si15    1.557   1_565 S
C120   H340    1.112   .     S
C120   H341    1.106   .     S
C120   H342    1.043   .     S
C122   H343    1.089   .     S
C122   H344    1.096   .     S
C122   H345    1.096   .     S
O123   Si17    1.632   1_565 S
C125   H346    1.145   .     S
C125   H347    1.098   .     S
C125   H348    1.125   .     S
O127   Si17    1.637   1_565 S
C128   H349    1.099   .     S
C128   H350    1.082   .     S
C128   H351    1.177   .     S
O129   Si27    1.603   1_556 S
C130   H352    1.011   .     S
C130   H353    1.132   .     S
C130   H354    1.064   .     S
C131   H355    1.054   .     S
C131   H356    1.094   .     S
C131   H357    1.103   .     S
C133   H358    1.134   .     S
C133   H359    1.067   .     S
C133   H360    1.107   .     S
C134   H361    1.089   .     S
C134   H362    1.124   .     S
C134   H363    1.108   .     S
C135   H364    1.110   .     S
C135   H365    1.114   .     S
C135   H366    1.124   .     S
C136   H367    1.063   .     S
C136   H368    1.125   .     S
C136   H369    1.122   .     S
C136   Si33    1.846   1_565 S
C138   H370    1.109   .     S
C138   H371    1.151   .     S
C138   H372    1.126   .     S
C139   H373    1.160   .     S
C139   H374    1.117   .     S
C139   H375    1.099   .     S
O141   Si5     1.630   1_655 S
O141   Si35    1.602   1_556 S
C143   H376    1.109   .     S
C143   H377    1.191   .     S
C143   H378    1.099   .     S
C144   H379    1.125   .     S
C144   H380    1.151   .     S
C144   H381    1.074   .     S
C144   Si35    1.841   1_556 S
C145   H382    1.078   .     S
C145   H383    1.096   .     S
C145   H384    1.016   .     S
C146   H385    1.097   .     S
C146   H386    1.094   .     S
C146   H387    1.104   .     S
C149   H388    1.085   .     S
C149   H389    1.124   .     S
C149   H390    1.104   .     S
C151   H391    1.113   .     S
C151   H392    1.097   .     S
C151   H393    1.068   .     S
C152   H394    1.046   .     S
C152   H395    1.104   .     S
C152   H396    1.136   .     S
C153   H397    1.073   .     S
C153   H398    1.079   .     S
C153   H399    1.124   .     S
C154   H400    1.135   .     S
C154   H401    1.061   .     S
C154   H402    1.113   .     S
O156   Si12    1.610   1_655 S
O156   Si40    1.608   1_556 S
C157   H403    1.115   .     S
C157   H404    1.066   .     S
C157   H405    1.106   .     S
C158   H406    1.116   .     S
C158   H407    1.161   .     S
C158   H408    1.127   .     S
C160   H409    1.124   .     S
C160   H410    1.060   .     S
C160   H411    1.112   .     S
O161   Si10    1.631   1_655 S
C163   H412    1.082   .     S
C163   H413    1.170   .     S
C163   H414    1.066   .     S
O165   Si8     1.642   1_655 S
C168   H415    1.106   .     S
C168   H416    1.086   .     S
C168   H417    1.094   .     S
O169   Si40    1.617   1_556 S
O170   Si22    1.620   1_556 S
O172   Si33    1.544   1_565 S
C176   H418    1.123   .     S
C176   H419    1.103   .     S
C176   H420    1.040   .     S
O178   Si36    1.579   1_565 S
O180   Si13    1.548   1_655 S
O183   Si36    1.582   1_565 S
C185   H421    1.099   .     S
C185   H422    1.151   .     S
C185   H423    1.158   .     S
C186   H424    1.065   .     S
C186   H425    1.092   .     S
C186   H426    1.115   .     S
C187   H427    1.115   .     S
C187   H428    1.134   .     S
C187   H429    1.140   .     S
C188   H430    1.123   .     S
C188   H431    1.045   .     S
C188   H432    1.146   .     S
C189   H433    1.131   .     S
C189   H434    1.123   .     S
C189   H435    1.131   .     S
O190   Si27    1.608   1_556 S
C191   H436    1.137   .     S
C191   H437    1.124   .     S
C191   H438    1.102   .     S
C193   H439    1.106   .     S
C193   H440    1.055   .     S
C193   H441    1.070   .     S
C194   H442    1.147   .     S
C194   H443    1.082   .     S
C194   H444    1.080   .     S
C195   H445    1.079   .     S
C195   H446    1.083   .     S
C195   H447    1.107   .     S
