data_333-11-11-14-15-30-18
_audit_creation_date              2025-03-07
_audit_creation_method            'Materials Studio'
_symmetry_space_group_name_H-M    'P1'
_symmetry_Int_Tables_number       1
_symmetry_cell_setting            triclinic
loop_
_symmetry_equiv_pos_as_xyz
  x,y,z
_cell_length_a                    17.6174
_cell_length_b                    15.9335
_cell_length_c                    19.2586
_cell_angle_alpha                 82.8463
_cell_angle_beta                  93.0491
_cell_angle_gamma                 120.7694
loop_
_atom_site_label
_atom_site_type_symbol
_atom_site_fract_x
_atom_site_fract_y
_atom_site_fract_z
_atom_site_U_iso_or_equiv
_atom_site_adp_type
_atom_site_occupancy
Si1    Si   -0.00681   0.19570   0.59476   0.00000  Uiso   1.00
Si2    Si    0.09082   0.16747   0.36439   0.00000  Uiso   1.00
Si3    Si    0.14633  -0.01635   0.75935   0.00000  Uiso   1.00
Si4    Si    0.14077   0.17128   0.68797   0.00000  Uiso   1.00
Si5    Si    0.03240   0.46904   0.20023   0.00000  Uiso   1.00
Si6    Si    0.25435   0.59941   0.00991   0.00000  Uiso   1.00
Si7    Si    0.11299   0.30978   0.46600   0.00000  Uiso   1.00
Si8    Si   -0.05984   0.55067   0.55440   0.00000  Uiso   1.00
Si9    Si    0.10919   0.45855   0.35189   0.00000  Uiso   1.00
Si10   Si    0.16399   0.30735   0.79508   0.00000  Uiso   1.00
Si11   Si    0.16270   0.66895   0.10951   0.00000  Uiso   1.00
Si12   Si    0.00907   0.77681   0.22350   0.00000  Uiso   1.00
Si13   Si    0.13024   0.80639  -0.00661   0.00000  Uiso   1.00
Si14   Si   -0.04160   0.83967   0.58327   0.00000  Uiso   1.00
Si15   Si    0.15836   0.69752   0.72043   0.00000  Uiso   1.00
Si16   Si    0.01226   0.81657   0.87152   0.00000  Uiso   1.00
Si17   Si    0.11884   0.84740   0.64894   0.00000  Uiso   1.00
Si18   Si    0.47289   0.05518   0.04343   0.00000  Uiso   1.00
Si19   Si    0.48507   0.18021  -0.09765   0.00000  Uiso   1.00
Si20   Si    0.51577  -0.01435   0.52965   0.00000  Uiso   1.00
Si21   Si    0.30426   0.23617   0.58909   0.00000  Uiso   1.00
Si22   Si    0.50364   0.00717   0.77600   0.00000  Uiso   1.00
Si23   Si    0.31220   0.13417   0.83237   0.00000  Uiso   1.00
Si24   Si    0.48414   0.33169  -0.00721   0.00000  Uiso   1.00
Si25   Si    0.47541   0.45528   0.23932   0.00000  Uiso   1.00
Si26   Si    0.60628   0.55204  -0.02094   0.00000  Uiso   1.00
Si27   Si    0.48467   0.38400   0.52363   0.00000  Uiso   1.00
Si28   Si    0.27005   0.48861   0.52127   0.00000  Uiso   1.00
Si29   Si    0.53913   0.51004   0.38417   0.00000  Uiso   1.00
Si30   Si    0.59479   0.62089   0.12184   0.00000  Uiso   1.00
Si31   Si    0.31238   0.78460   0.21284   0.00000  Uiso   1.00
Si32   Si    0.93060  -0.03420   0.08922   0.00000  Uiso   1.00
Si33   Si    0.65585   0.22712   0.30455   0.00000  Uiso   1.00
Si34   Si    0.73681   0.12952  -0.04883   0.00000  Uiso   1.00
Si35   Si    0.69257   0.15078   0.58118   0.00000  Uiso   1.00
Si36   Si    0.77277   0.13661   0.31460   0.00000  Uiso   1.00
Si37   Si    0.84042   0.00366   0.76900   0.00000  Uiso   1.00
Si38   Si    0.64240   0.19028   0.83635   0.00000  Uiso   1.00
Si39   Si    0.84686   0.18665   0.68228   0.00000  Uiso   1.00
Si40   Si    0.89342   0.52963   0.00749   0.00000  Uiso   1.00
Si41   Si    0.65380   0.51640   0.61163   0.00000  Uiso   1.00
Si42   Si    0.81325   0.33689   0.75185   0.00000  Uiso   1.00
Si43   Si    0.75600   0.54783   0.90963   0.00000  Uiso   1.00
Si44   Si    0.81921   0.52492   0.67163   0.00000  Uiso   1.00
Si45   Si    0.89639   0.67033   0.10097   0.00000  Uiso   1.00
Si46   Si    0.74742   0.81982   0.16021   0.00000  Uiso   1.00
Si47   Si    0.89761   0.82427  -0.01398   0.00000  Uiso   1.00
Si48   Si    0.79031   0.70729   0.51138   0.00000  Uiso   1.00
Si49   Si    0.65200   0.78136   0.63866   0.00000  Uiso   1.00
Si50   Si    0.85408   0.68131   0.78127   0.00000  Uiso   1.00
Si51   Si    0.83873   0.84387   0.68435   0.00000  Uiso   1.00
C52    C     0.91362   0.08699   0.54921   0.00000  Uiso   1.00
C53    C     0.12264   0.25943   0.29037   0.00000  Uiso   1.00
C54    C    -0.03016   0.07001   0.35083   0.00000  Uiso   1.00
C55    C     0.16344   0.11323   0.36333   0.00000  Uiso   1.00
O56    O     0.05531   0.16499   0.64489   0.00000  Uiso   1.00
O57    O     0.11942   0.05780   0.71139   0.00000  Uiso   1.00
C58    C     0.91341   0.43148   0.22463   0.00000  Uiso   1.00
C59    C     1.02114   0.37905   0.13250   0.00000  Uiso   1.00
C60    C     0.25790   0.48341   0.03253   0.00000  Uiso   1.00
C61    C     0.19411   0.58611   0.92502   0.00000  Uiso   1.00
C62    C     0.37513   0.69680   0.99096   0.00000  Uiso   1.00
O63    O     0.04661   0.27822   0.53046   0.00000  Uiso   1.00
O64    O     0.10155   0.21320   0.43614   0.00000  Uiso   1.00
C65    C    -0.01960   0.47360   0.60248   0.00000  Uiso   1.00
C66    C     0.03392   0.66799   0.51304   0.00000  Uiso   1.00
C67    C     0.86658   0.48333   0.48332   0.00000  Uiso   1.00
O68    O     0.06597   0.43740   0.27463   0.00000  Uiso   1.00
O69    O     0.08401   0.36497   0.40434   0.00000  Uiso   1.00
C70    C     0.06123   0.52696   0.38453   0.00000  Uiso   1.00
C71    C     0.12554   0.25696   0.88943   0.00000  Uiso   1.00
O72    O     0.15570   0.22109   0.75488   0.00000  Uiso   1.00
C73    C     0.08825   0.34912   0.75906   0.00000  Uiso   1.00
C74    C     0.28014   0.41053   0.79103   0.00000  Uiso   1.00
O75    O     0.08947   0.58280   0.16549   0.00000  Uiso   1.00
O76    O     0.20420   0.61732   0.06956   0.00000  Uiso   1.00
C77    C     0.00985   0.67970   0.27995   0.00000  Uiso   1.00
C78    C     0.12465   0.88203   0.22530   0.00000  Uiso   1.00
C79    C     0.93696   0.80651   0.26300   0.00000  Uiso   1.00
O80    O     0.11748   0.71136   0.04979   0.00000  Uiso   1.00
C81    C     0.12281   0.89554   0.03900   0.00000  Uiso   1.00
C82    C     0.23821   0.86228   0.95376   0.00000  Uiso   1.00
C83    C     0.01860   0.92753   0.50379   0.00000  Uiso   1.00
C84    C     0.06616   0.60878   0.78096   0.00000  Uiso   1.00
C85    C     0.21730   0.63926   0.68934   0.00000  Uiso   1.00
C86    C     0.23842   0.78893   0.77670   0.00000  Uiso   1.00
O87    O     0.06245   0.78107   0.92673   0.00000  Uiso   1.00
O88    O     0.07836   0.92230   0.82430   0.00000  Uiso   1.00
O89    O     0.01891   0.81009   0.62832   0.00000  Uiso   1.00
O90    O     0.12563   0.75178   0.66371   0.00000  Uiso   1.00
O91    O     0.14455   0.90321   0.71477   0.00000  Uiso   1.00
C92    C     0.20042   0.92225   0.57917   0.00000  Uiso   1.00
C93    C     0.45105   0.92671   0.04299   0.00000  Uiso   1.00
O94    O     0.49514   0.10864  -0.03532   0.00000  Uiso   1.00
C95    C     0.46808   0.06180   0.49646   0.00000  Uiso   1.00
C96    C     0.42433   0.87028   0.57318   0.00000  Uiso   1.00
C97    C     0.55164   0.95487   0.45306   0.00000  Uiso   1.00
C98    C     0.24579   0.19218   0.50923   0.00000  Uiso   1.00
C99    C     0.34659   0.15738   0.63382   0.00000  Uiso   1.00
O100   O     0.23375   0.23436   0.64105   0.00000  Uiso   1.00
C101   C     0.51339  -0.08889   0.74466   0.00000  Uiso   1.00
C102   C     0.45876   1.05907   0.71656   0.00000  Uiso   1.00
C103   C     0.42592   0.94595   0.85216   0.00000  Uiso   1.00
O104   O     0.24555   0.04755   0.78776   0.00000  Uiso   1.00
O105   O     0.39055   0.12144   0.86623   0.00000  Uiso   1.00
C106   C     0.36846   0.25527   0.78160   0.00000  Uiso   1.00
C107   C     0.24581   0.13201   0.90160   0.00000  Uiso   1.00
C108   C     0.36899   0.28449   0.02235   0.00000  Uiso   1.00
O109   O     0.48717   0.27459  -0.07125   0.00000  Uiso   1.00
C110   C     0.55312   0.32982   0.06880   0.00000  Uiso   1.00
C111   C     0.46297   0.33100   0.23573   0.00000  Uiso   1.00
C112   C     0.37549   0.44835   0.20484   0.00000  Uiso   1.00
C113   C     0.23284   0.52162   0.33293   0.00000  Uiso   1.00
O114   O     0.52853   0.44405  -0.03646   0.00000  Uiso   1.00
C115   C     0.57222   0.62801   0.91934   0.00000  Uiso   1.00
O116   O     0.39489   0.33997   0.56728   0.00000  Uiso   1.00
C117   C     0.48154   0.28263   0.48197   0.00000  Uiso   1.00
O118   O     0.21107   0.39061   0.48354   0.00000  Uiso   1.00
C119   C     0.27838   0.45745   0.61379   0.00000  Uiso   1.00
C120   C     0.38212   0.56057   0.48500   0.00000  Uiso   1.00
C121   C     0.23092   0.58054   0.50906   0.00000  Uiso   1.00
O122   O     0.47877   0.47232   0.31894   0.00000  Uiso   1.00
O123   O     0.49045   0.45744   0.45896   0.00000  Uiso   1.00
C124   C     0.58786   0.64307   0.38794   0.00000  Uiso   1.00
C125   C     0.63341   0.49275   0.36819   0.00000  Uiso   1.00
O126   O     0.55902   0.53977   0.19275   0.00000  Uiso   1.00
O127   O     0.59739   0.56481   0.06047   0.00000  Uiso   1.00
C128   C     0.50922   0.65403   0.10023   0.00000  Uiso   1.00
O129   O     0.23922   0.75483   0.15109   0.00000  Uiso   1.00
C130   C     0.39142   0.73504   0.20615   0.00000  Uiso   1.00
C131   C     0.38209   0.91733   0.22688   0.00000  Uiso   1.00
C132   C     0.37212   1.05722   0.07730   0.00000  Uiso   1.00
C133   C     0.24230   0.73243   0.29159   0.00000  Uiso   1.00
C134   C     1.03700   0.03457   0.12975   0.00000  Uiso   1.00
C135   C     0.56701   0.11480   0.10192   0.00000  Uiso   1.00
C136   C     0.53252   0.15646   0.30864   0.00000  Uiso   1.00
C137   C     0.68186   0.28368   0.21065   0.00000  Uiso   1.00
C138   C     0.70181   0.32617   0.35917   0.00000  Uiso   1.00
C139   C     0.83328   0.15373   0.89636   0.00000  Uiso   1.00
C140   C     0.89959   0.05589   0.05040   0.00000  Uiso   1.00
C141   C     0.65551  -0.00319  -0.03762   0.00000  Uiso   1.00
C142   C     0.78388   0.17935   0.03023   0.00000  Uiso   1.00
O143   O     0.59843   0.04889   0.57899   0.00000  Uiso   1.00
C144   C     0.74603   0.18521   0.49172   0.00000  Uiso   1.00
C145   C     0.68172   0.25919   0.59853   0.00000  Uiso   1.00
C146   C     0.77963   0.12033   0.21831   0.00000  Uiso   1.00
O147   O     0.69462   0.15474   0.32176   0.00000  Uiso   1.00
C148   C     0.74190   0.01815   0.36211   0.00000  Uiso   1.00
C149   C     0.88092   0.23076   0.34709   0.00000  Uiso   1.00
C150   C     0.93721   0.03015   0.82474   0.00000  Uiso   1.00
C151   C     0.73672   0.91788   0.81171   0.00000  Uiso   1.00
O152   O     0.59169   0.08556   0.80977   0.00000  Uiso   1.00
O153   O     0.69140   0.18772   0.90712   0.00000  Uiso   1.00
O154   O     0.56722   0.21413   0.84889   0.00000  Uiso   1.00
O155   O     0.93778   0.22608   0.63775   0.00000  Uiso   1.00
O156   O     0.76032   0.13982   0.63378   0.00000  Uiso   1.00
O157   O     0.84020   0.10496   0.74211   0.00000  Uiso   1.00
C158   C     0.99302   0.53208   0.97740   0.00000  Uiso   1.00
C159   C     0.81027   0.40406   0.04362   0.00000  Uiso   1.00
O160   O     0.57284   0.43189   0.57197   0.00000  Uiso   1.00
C161   C     0.60474   0.52136   0.69045   0.00000  Uiso   1.00
O162   O     0.71389   0.26529   0.77958   0.00000  Uiso   1.00
O163   O     0.85446   0.28001   0.71901   0.00000  Uiso   1.00
C164   C     0.87943   0.38937   0.83006   0.00000  Uiso   1.00
C165   C     0.68414   0.42232   0.88041   0.00000  Uiso   1.00
O166   O     0.84409   0.55970   0.94573   0.00000  Uiso   1.00
O167   O     0.69915   0.56366   0.96186   0.00000  Uiso   1.00
O168   O     0.88481   0.57407   0.60410   0.00000  Uiso   1.00
O169   O     0.72194   0.48855   0.64291   0.00000  Uiso   1.00
O170   O     0.81921   0.42701   0.69913   0.00000  Uiso   1.00
C171   C     0.79298   0.58826   0.15492   0.00000  Uiso   1.00
O172   O     0.91938   0.59835   0.07076   0.00000  Uiso   1.00
O173   O     0.97417   0.74165   0.14775   0.00000  Uiso   1.00
O174   O     0.69076   0.71383   0.12926   0.00000  Uiso   1.00
C175   C     0.75048   0.80733   0.25721   0.00000  Uiso   1.00
O176   O     0.85135   0.87518   0.13755   0.00000  Uiso   1.00
C177   C     0.69438   0.89387   0.13666   0.00000  Uiso   1.00
O178   O     0.95572   0.84200   0.91969   0.00000  Uiso   1.00
O179   O     0.87685   0.73002   0.03408   0.00000  Uiso   1.00
O180   O     0.94852   0.91884   0.02619   0.00000  Uiso   1.00
C181   C     0.79313   0.80996   0.95811   0.00000  Uiso   1.00
O182   O     0.70488   0.62504   0.55851   0.00000  Uiso   1.00
C183   C     0.81477   0.66477   0.43192   0.00000  Uiso   1.00
C184   C     0.77664   0.81349   0.47885   0.00000  Uiso   1.00
O185   O     0.87849   0.74802   0.55711   0.00000  Uiso   1.00
C186   C     0.57094   0.70905   0.56927   0.00000  Uiso   1.00
C187   C     0.66731   0.90497   0.61478   0.00000  Uiso   1.00
C188   C     0.59125   0.72177   0.72436   0.00000  Uiso   1.00
O189   O     0.77884   0.62101   0.84004   0.00000  Uiso   1.00
O190   O     0.85270   0.60721   0.72767   0.00000  Uiso   1.00
O191   O     0.94685   0.72973   0.82449   0.00000  Uiso   1.00
O192   O     0.91691   0.87767   0.63291   0.00000  Uiso   1.00
O193   O     0.74622   0.78714   0.64604   0.00000  Uiso   1.00
O194   O     0.84829   0.77494   0.74563   0.00000  Uiso   1.00
O195   O     0.84940   0.94464   0.71028   0.00000  Uiso   1.00
H196   H     0.85682   0.02886   0.58451   0.00000  Uiso   1.00
H197   H     0.94977   0.05453   0.53571   0.00000  Uiso   1.00
H198   H     0.88100   0.09757   0.50147   0.00000  Uiso   1.00
H199   H     0.08060   0.28961   0.29436   0.00000  Uiso   1.00
H200   H     0.11248   0.22069   0.24459   0.00000  Uiso   1.00
H201   H     0.19168   0.31360   0.29981   0.00000  Uiso   1.00
H202   H    -0.04151   0.00050   0.33531   0.00000  Uiso   1.00
H203   H    -0.06307   0.09302   0.30772   0.00000  Uiso   1.00
H204   H    -0.06877   0.04757   0.40085   0.00000  Uiso   1.00
H205   H     0.15150   0.05609   0.40883   0.00000  Uiso   1.00
H206   H     0.23154   0.16349   0.35845   0.00000  Uiso   1.00
H207   H     0.13956   0.07722   0.31466   0.00000  Uiso   1.00
H208   H     0.91598   0.46273   0.27269   0.00000  Uiso   1.00
H209   H     0.87603   0.34988   0.23153   0.00000  Uiso   1.00
H210   H     0.88843   0.46875   0.18570   0.00000  Uiso   1.00
H211   H     0.98264   0.37363   0.08659   0.00000  Uiso   1.00
H212   H     0.99075   0.30546   0.16692   0.00000  Uiso   1.00
H213   H     1.08810   0.39665   0.11110   0.00000  Uiso   1.00
H214   H     0.30650   0.48860  -0.00791   0.00000  Uiso   1.00
H215   H     0.19207   0.41302   0.03039   0.00000  Uiso   1.00
H216   H     0.28521   0.48343   0.08515   0.00000  Uiso   1.00
H217   H     0.13299   0.52033   0.92968   0.00000  Uiso   1.00
H218   H     0.23263   0.58369   0.88640   0.00000  Uiso   1.00
H219   H     0.18603   0.65141   0.91119   0.00000  Uiso   1.00
H220   H     0.40765   0.73227   1.03514   0.00000  Uiso   1.00
H221   H     0.37850   0.74761   0.94640   0.00000  Uiso   1.00
H222   H     0.41156   0.66174   0.97769   0.00000  Uiso   1.00
H223   H     0.03465   0.46900   0.57596   0.00000  Uiso   1.00
H224   H    -0.07682   0.40324   0.60780   0.00000  Uiso   1.00
H225   H    -0.00532   0.49823   0.65587   0.00000  Uiso   1.00
H226   H     0.09565   0.69244   0.54239   0.00000  Uiso   1.00
H227   H     0.01798   0.72721   0.51159   0.00000  Uiso   1.00
H228   H     0.03592   0.64214   0.46258   0.00000  Uiso   1.00
H229   H     0.85480   0.40764   0.48134   0.00000  Uiso   1.00
H230   H     0.88736   0.52224   0.42783   0.00000  Uiso   1.00
H231   H     0.79687   0.46827   0.49159   0.00000  Uiso   1.00
H232   H    -0.00843   0.50017   0.37162   0.00000  Uiso   1.00
H233   H     0.09667   0.60392   0.36467   0.00000  Uiso   1.00
H234   H     0.06976   0.52206   0.44531   0.00000  Uiso   1.00
H235   H     0.07875   0.28149   0.89800   0.00000  Uiso   1.00
H236   H     0.17873   0.28315   0.92760   0.00000  Uiso   1.00
H237   H     0.10052   0.17979   0.88741   0.00000  Uiso   1.00
H238   H     0.10332   0.41308   0.79060   0.00000  Uiso   1.00
H239   H     0.01884   0.29050   0.76427   0.00000  Uiso   1.00
H240   H     0.11189   0.37913   0.70266   0.00000  Uiso   1.00
H241   H     0.32097   0.41098   0.74759   0.00000  Uiso   1.00
H242   H     0.31065   0.40241   0.83896   0.00000  Uiso   1.00
H243   H     0.27640   0.48171   0.78195   0.00000  Uiso   1.00
H244   H     0.05647   0.71277   0.32612   0.00000  Uiso   1.00
H245   H     0.04027   0.65009   0.24879   0.00000  Uiso   1.00
H246   H    -0.05499   0.62800   0.29631   0.00000  Uiso   1.00
H247   H     0.17203   0.86631   0.20471   0.00000  Uiso   1.00
H248   H     0.13114   0.89209   0.28022   0.00000  Uiso   1.00
H249   H     0.13783   0.95424   0.19906   0.00000  Uiso   1.00
H250   H     0.95995   0.88441   0.24250   0.00000  Uiso   1.00
H251   H     0.94529   0.80050   0.32209   0.00000  Uiso   1.00
H252   H     0.86801   0.75415   0.24973   0.00000  Uiso   1.00
H253   H     0.12767   0.95593   0.00099   0.00000  Uiso   1.00
H254   H     0.17911   0.91430   0.07416   0.00000  Uiso   1.00
H255   H     0.06566   0.86811   0.07142   0.00000  Uiso   1.00
H256   H     0.26532   0.81176   0.95518   0.00000  Uiso   1.00
H257   H     0.28173   0.92818   0.97887   0.00000  Uiso   1.00
H258   H     0.24307   0.90240   0.90177   0.00000  Uiso   1.00
H259   H     0.05142   1.00580   0.51508   0.00000  Uiso   1.00
H260   H    -0.02852   0.92129   0.46452   0.00000  Uiso   1.00
H261   H     0.06132   0.91009   0.47101   0.00000  Uiso   1.00
H262   H     0.07524   0.54402   0.79711   0.00000  Uiso   1.00
H263   H     0.00648   0.58811   0.75175   0.00000  Uiso   1.00
H264   H     0.06406   0.63940   0.82798   0.00000  Uiso   1.00
H265   H     0.17089   0.56202   0.67158   0.00000  Uiso   1.00
H266   H     0.25151   0.62449   0.73757   0.00000  Uiso   1.00
H267   H     0.26987   0.69101   0.65425   0.00000  Uiso   1.00
H268   H     0.29418   0.84325   0.74220   0.00000  Uiso   1.00
H269   H     0.25764   0.75062   0.82178   0.00000  Uiso   1.00
H270   H     0.21038   0.82887   0.79636   0.00000  Uiso   1.00
H271   H     0.20491   0.99257   0.56797   0.00000  Uiso   1.00
H272   H     0.17407   0.88716   0.53094   0.00000  Uiso   1.00
H273   H     0.26506   0.93392   0.59195   0.00000  Uiso   1.00
H274   H     0.37831   0.87989   0.04429   0.00000  Uiso   1.00
H275   H     0.47856   0.90460   0.09138   0.00000  Uiso   1.00
H276   H     0.47822   0.92413  -0.00795   0.00000  Uiso   1.00
H277   H     0.51302   0.12542   0.45894   0.00000  Uiso   1.00
H278   H     0.45126   0.08642   0.54200   0.00000  Uiso   1.00
H279   H     0.40913   0.02276   0.46772   0.00000  Uiso   1.00
H280   H     0.38083   0.83485   0.53086   0.00000  Uiso   1.00
H281   H     0.38095   0.87884   0.61396   0.00000  Uiso   1.00
H282   H     0.44829   0.81940   0.58780   0.00000  Uiso   1.00
H283   H     0.59244   1.02222   0.41652   0.00000  Uiso   1.00
H284   H     0.48893   0.89697   0.43211   0.00000  Uiso   1.00
H285   H     0.59179   0.92434   0.47323   0.00000  Uiso   1.00
H286   H     0.26180   0.14060   0.48836   0.00000  Uiso   1.00
H287   H     0.26172   0.25385   0.46960   0.00000  Uiso   1.00
H288   H     0.17652   0.14717   0.52374   0.00000  Uiso   1.00
H289   H     0.35516   0.11824   0.59593   0.00000  Uiso   1.00
H290   H     0.29507   0.09768   0.67329   0.00000  Uiso   1.00
H291   H     0.41113   0.20572   0.65239   0.00000  Uiso   1.00
H292   H     0.44484  -0.13857   0.72558   0.00000  Uiso   1.00
H293   H     0.53199  -0.12881   0.78900   0.00000  Uiso   1.00
H294   H     0.56061  -0.05975   0.70578   0.00000  Uiso   1.00
H295   H     0.49177   1.07950   0.66099   0.00000  Uiso   1.00
H296   H     0.46660   1.12482   0.73580   0.00000  Uiso   1.00
H297   H     0.38692   1.00478   0.71156   0.00000  Uiso   1.00
H298   H     0.41817   0.87669   0.87151   0.00000  Uiso   1.00
H299   H     0.36287   0.93794   0.84490   0.00000  Uiso   1.00
H300   H     0.46875   0.99063   0.89361   0.00000  Uiso   1.00
H301   H     0.39782   0.31255   0.81831   0.00000  Uiso   1.00
H302   H     0.32960   0.27160   0.73980   0.00000  Uiso   1.00
H303   H     0.42789   0.25583   0.75945   0.00000  Uiso   1.00
H304   H     0.17628   0.09988   0.88442   0.00000  Uiso   1.00
H305   H     0.27017   0.21372   0.90153   0.00000  Uiso   1.00
H306   H     0.25583   0.09575   0.95240   0.00000  Uiso   1.00
H307   H     0.33484   0.31347  -0.01148   0.00000  Uiso   1.00
H308   H     0.36996   0.30658   0.07560   0.00000  Uiso   1.00
H309   H     0.33315   0.20431   0.03237   0.00000  Uiso   1.00
H310   H     0.61351   0.33379   0.05355   0.00000  Uiso   1.00
H311   H     0.51513   0.25831   0.09986   0.00000  Uiso   1.00
H312   H     0.56897   0.38919   0.10254   0.00000  Uiso   1.00
H313   H     0.53155   0.33646   0.23589   0.00000  Uiso   1.00
H314   H     0.42143   0.29596   0.18904   0.00000  Uiso   1.00
H315   H     0.42687   0.28545   0.28425   0.00000  Uiso   1.00
H316   H     0.32439   0.37298   0.21770   0.00000  Uiso   1.00
H317   H     0.38652   0.47428   0.14864   0.00000  Uiso   1.00
H318   H     0.35962   0.50006   0.22868   0.00000  Uiso   1.00
H319   H     0.25649   0.47217   0.34346   0.00000  Uiso   1.00
H320   H     0.27156   0.58237   0.36731   0.00000  Uiso   1.00
H321   H     0.25483   0.55715   0.28065   0.00000  Uiso   1.00
H322   H     0.50884   0.61803   0.93371   0.00000  Uiso   1.00
H323   H     0.57064   0.60975   0.86375   0.00000  Uiso   1.00
H324   H     0.60997   0.70486   0.92120   0.00000  Uiso   1.00
H325   H     0.47202   0.22864   0.52458   0.00000  Uiso   1.00
H326   H     0.54591   0.31416   0.45888   0.00000  Uiso   1.00
H327   H     0.42438   0.24718   0.44583   0.00000  Uiso   1.00
H328   H     0.33673   0.44522   0.62689   0.00000  Uiso   1.00
H329   H     0.21593   0.39718   0.63646   0.00000  Uiso   1.00
H330   H     0.28844   0.51978   0.63587   0.00000  Uiso   1.00
H331   H     0.41885   0.53107   0.51654   0.00000  Uiso   1.00
H332   H     0.41233   0.64135   0.48724   0.00000  Uiso   1.00
H333   H     0.38055   0.54087   0.43321   0.00000  Uiso   1.00
H334   H     0.21684   0.59855   0.45360   0.00000  Uiso   1.00
H335   H     0.28489   0.64214   0.53310   0.00000  Uiso   1.00
H336   H     0.17053   0.54355   0.54283   0.00000  Uiso   1.00
H337   H     0.57515   0.67606   0.34069   0.00000  Uiso   1.00
H338   H     0.65727   0.67359   0.39599   0.00000  Uiso   1.00
H339   H     0.55536   0.65212   0.43254   0.00000  Uiso   1.00
H340   H     0.68455   0.55231   0.32781   0.00000  Uiso   1.00
H341   H     0.59973   0.42147   0.35068   0.00000  Uiso   1.00
H342   H     0.65121   0.48235   0.42221   0.00000  Uiso   1.00
H343   H     0.46056   0.59751   0.07134   0.00000  Uiso   1.00
H344   H     0.53706   0.72513   0.06426   0.00000  Uiso   1.00
H345   H     0.47723   0.66026   0.14737   0.00000  Uiso   1.00
H346   H     0.46012   0.79228   0.20191   0.00000  Uiso   1.00
H347   H     0.36200   0.68408   0.16862   0.00000  Uiso   1.00
H348   H     0.38915   0.69188   0.25392   0.00000  Uiso   1.00
H349   H     0.39511   0.91893   0.28534   0.00000  Uiso   1.00
H350   H     0.35474   0.96865   0.21637   0.00000  Uiso   1.00
H351   H     0.44404   0.94437   0.20356   0.00000  Uiso   1.00
H352   H     0.34485   1.07486   0.02822   0.00000  Uiso   1.00
H353   H     0.39041   1.10722   0.11821   0.00000  Uiso   1.00
H354   H     0.32312   0.98571   0.10452   0.00000  Uiso   1.00
H355   H     0.19297   0.66031   0.28118   0.00000  Uiso   1.00
H356   H     0.21329   0.77656   0.29209   0.00000  Uiso   1.00
H357   H     0.26935   0.72886   0.34379   0.00000  Uiso   1.00
H358   H     1.02906   0.04437   0.18659   0.00000  Uiso   1.00
H359   H     1.07162   0.10820   0.09983   0.00000  Uiso   1.00
H360   H     1.07958   0.00597   0.12301   0.00000  Uiso   1.00
H361   H     0.59680   0.06827   0.10877   0.00000  Uiso   1.00
H362   H     0.53829   0.11803   0.15123   0.00000  Uiso   1.00
H363   H     0.61488   0.18845   0.07474   0.00000  Uiso   1.00
H364   H     0.50623   0.07519   0.31159   0.00000  Uiso   1.00
H365   H     0.50589   0.17413   0.25765   0.00000  Uiso   1.00
H366   H     0.51015   0.18009   0.34773   0.00000  Uiso   1.00
H367   H     0.74518   0.35876   0.21270   0.00000  Uiso   1.00
H368   H     0.62604   0.29256   0.19502   0.00000  Uiso   1.00
H369   H     0.68536   0.23095   0.17966   0.00000  Uiso   1.00
H370   H     0.76404   0.32955   0.37623   0.00000  Uiso   1.00
H371   H     0.65602   0.31054   0.40289   0.00000  Uiso   1.00
H372   H     0.71799   0.39922   0.33101   0.00000  Uiso   1.00
H373   H     0.82058   0.17488   0.84312   0.00000  Uiso   1.00
H374   H     0.84037   0.08948   0.90255   0.00000  Uiso   1.00
H375   H     0.88927   0.21662   0.91794   0.00000  Uiso   1.00
H376   H     0.82977   0.01662   0.03256   0.00000  Uiso   1.00
H377   H     0.94750   0.10361   0.00957   0.00000  Uiso   1.00
H378   H     0.90533   0.10517   0.09370   0.00000  Uiso   1.00
H379   H     0.68722  -0.04789  -0.03667   0.00000  Uiso   1.00
H380   H     0.61315  -0.01700  -0.08367   0.00000  Uiso   1.00
H381   H     0.61838  -0.02527   0.01366   0.00000  Uiso   1.00
H382   H     0.77965   0.11301   0.06372   0.00000  Uiso   1.00
H383   H     0.73617   0.19401   0.05294   0.00000  Uiso   1.00
H384   H     0.85603   0.24639   0.02581   0.00000  Uiso   1.00
H385   H     0.81386   0.24750   0.49783   0.00000  Uiso   1.00
H386   H     0.70810   0.20547   0.45415   0.00000  Uiso   1.00
H387   H     0.75452   0.12259   0.48340   0.00000  Uiso   1.00
H388   H     0.64418   0.27173   0.55502   0.00000  Uiso   1.00
H389   H     0.74937   0.32083   0.60238   0.00000  Uiso   1.00
H390   H     0.63984   0.24289   0.64425   0.00000  Uiso   1.00
H391   H     0.71740   0.05699   0.20758   0.00000  Uiso   1.00
H392   H     0.83659   0.11211   0.21230   0.00000  Uiso   1.00
H393   H     0.78898   0.18265   0.18604   0.00000  Uiso   1.00
H394   H     0.79475   0.00150   0.35011   0.00000  Uiso   1.00
H395   H     0.67734  -0.03895   0.34605   0.00000  Uiso   1.00
H396   H     0.73673   0.01571   0.41786   0.00000  Uiso   1.00
H397   H     0.88387   0.30350   0.34113   0.00000  Uiso   1.00
H398   H     0.94230   0.24670   0.31602   0.00000  Uiso   1.00
H399   H     0.88661   0.20487   0.40266   0.00000  Uiso   1.00
H400   H     0.94089  -0.03834   0.83778   0.00000  Uiso   1.00
H401   H     0.93860   0.06456   0.87389   0.00000  Uiso   1.00
H402   H     0.99599   0.08433   0.79186   0.00000  Uiso   1.00
H403   H     0.68390   0.91731   0.77590   0.00000  Uiso   1.00
H404   H     0.73850   0.94025   0.86366   0.00000  Uiso   1.00
H405   H     0.74036   0.85034   0.81766   0.00000  Uiso   1.00
H406   H     1.03537   0.60151   0.94429   0.00000  Uiso   1.00
H407   H     0.97618   0.46942   0.94646   0.00000  Uiso   1.00
H408   H     1.03974   0.53282   1.01860   0.00000  Uiso   1.00
H409   H     0.77946   0.35493   0.00045   0.00000  Uiso   1.00
H410   H     0.75697   0.40485   0.06842   0.00000  Uiso   1.00
H411   H     0.84003   0.37345   0.08070   0.00000  Uiso   1.00
H412   H     0.56198   0.44917   0.72534   0.00000  Uiso   1.00
H413   H     0.56523   0.55508   0.67366   0.00000  Uiso   1.00
H414   H     0.65553   0.56314   0.72704   0.00000  Uiso   1.00
H415   H     0.88897   0.46496   0.83057   0.00000  Uiso   1.00
H416   H     0.94507   0.40211   0.82254   0.00000  Uiso   1.00
H417   H     0.84968   0.33826   0.87760   0.00000  Uiso   1.00
H418   H     0.62189   0.42167   0.86177   0.00000  Uiso   1.00
H419   H     0.67336   0.36380   0.92330   0.00000  Uiso   1.00
H420   H     0.71864   0.41721   0.83664   0.00000  Uiso   1.00
H421   H     0.79903   0.53151   0.18956   0.00000  Uiso   1.00
H422   H     0.74333   0.55762   0.11629   0.00000  Uiso   1.00
H423   H     0.78367   0.63154   0.19106   0.00000  Uiso   1.00
H424   H     0.69818   0.81157   0.28691   0.00000  Uiso   1.00
H425   H     0.81158   0.87674   0.26741   0.00000  Uiso   1.00
H426   H     0.74491   0.73777   0.27882   0.00000  Uiso   1.00
H427   H     0.67001   0.88946   0.08488   0.00000  Uiso   1.00
H428   H     0.74032   0.97593   0.14231   0.00000  Uiso   1.00
H429   H     0.63411   0.86870   0.16895   0.00000  Uiso   1.00
H430   H     0.74060   0.77577   0.99872   0.00000  Uiso   1.00
H431   H     0.77146   0.77155   0.91087   0.00000  Uiso   1.00
H432   H     0.81059   0.88862   0.94675   0.00000  Uiso   1.00
H433   H     0.77950   0.67216   0.38526   0.00000  Uiso   1.00
H434   H     0.79634   0.58736   0.44124   0.00000  Uiso   1.00
H435   H     0.88758   0.70860   0.42255   0.00000  Uiso   1.00
H436   H     0.81628   0.87829   0.51019   0.00000  Uiso   1.00
H437   H     0.70342   0.78257   0.47965   0.00000  Uiso   1.00
H438   H     0.79838   0.84246   0.42355   0.00000  Uiso   1.00
H439   H     0.58362   0.65231   0.56289   0.00000  Uiso   1.00
H440   H     0.57723   0.75445   0.51992   0.00000  Uiso   1.00
H441   H     0.50263   0.68372   0.58707   0.00000  Uiso   1.00
H442   H     0.60597   0.90002   0.61429   0.00000  Uiso   1.00
H443   H     0.69780   0.92751   0.56300   0.00000  Uiso   1.00
H444   H     0.71025   0.96256   0.64951   0.00000  Uiso   1.00
H445   H     0.63321   0.70479   0.76120   0.00000  Uiso   1.00
H446   H     0.52031   0.64931   0.72266   0.00000  Uiso   1.00
H447   H     0.58178   0.77742   0.74288   0.00000  Uiso   1.00
loop_
_geom_bond_atom_site_label_1
_geom_bond_atom_site_label_2
_geom_bond_distance
_geom_bond_site_symmetry_2
_ccdc_geom_bond_type
Si1    O56     1.639   .     S
Si1    O63     1.613   .     S
Si1    C52     1.870   1_455 S
Si1    O155    1.594   1_455 S
Si2    C53     1.794   .     S
Si2    C54     1.918   .     S
Si2    C55     1.877   .     S
Si2    O64     1.599   .     S
Si3    O57     1.652   .     S
Si3    O104    1.615   .     S
Si3    O88     1.616   1_545 S
Si3    O91     1.616   1_545 S
Si4    O56     1.643   .     S
Si4    O57     1.653   .     S
Si4    O72     1.538   .     S
Si4    O100    1.660   .     S
Si5    O68     1.641   .     S
Si5    O75     1.628   .     S
Si5    C58     1.930   1_455 S
Si5    C59     1.986   1_455 S
Si6    C60     1.877   .     S
Si6    O76     1.621   .     S
Si6    C61     1.875   1_554 S
Si6    C62     1.906   1_554 S
Si7    O63     1.600   .     S
Si7    O64     1.622   .     S
Si7    O69     1.606   .     S
Si7    O118    1.590   .     S
Si8    C65     1.846   .     S
Si8    C66     1.862   .     S
Si8    C67     1.860   1_455 S
Si8    O168    1.602   1_455 S
Si9    O68     1.627   .     S
Si9    O69     1.561   .     S
Si9    C70     1.862   .     S
Si9    C113    1.908   .     S
Si10   C71     1.901   .     S
Si10   O72     1.599   .     S
Si10   C73     1.844   .     S
Si10   C74     1.854   .     S
Si11   O75     1.636   .     S
Si11   O76     1.624   .     S
Si11   O80     1.635   .     S
Si11   O129    1.613   .     S
Si12   C77     1.782   .     S
Si12   C78     1.863   .     S
Si12   C79     1.796   1_455 S
Si12   O173    1.605   1_455 S
Si13   O80     1.671   .     S
Si13   C81     1.822   .     S
Si13   C82     1.802   1_554 S
Si13   O87     1.646   1_554 S
Si14   C83     1.884   .     S
Si14   O89     1.557   .     S
Si14   O185    1.540   1_455 S
Si14   O192    1.577   1_455 S
Si15   C84     1.854   .     S
Si15   C85     1.868   .     S
Si15   C86     1.848   .     S
Si15   O90     1.575   .     S
Si16   O87     1.579   .     S
Si16   O88     1.657   .     S
Si16   O178    1.619   1_455 S
Si16   O191    1.622   1_455 S
Si17   O89     1.589   .     S
Si17   O90     1.578   .     S
Si17   O91     1.553   .     S
Si17   C92     1.829   .     S
Si18   O94     1.606   .     S
Si18   C135    1.838   .     S
Si18   C93     1.881   1_545 S
Si18   C132    1.940   1_545 S
Si19   O94     1.617   .     S
Si19   O109    1.629   .     S
Si19   O105    1.605   1_554 S
Si19   O154    1.633   1_554 S
Si20   C95     1.838   .     S
Si20   O143    1.621   .     S
Si20   C96     1.846   1_545 S
Si20   C97     1.847   1_545 S
Si21   C98     1.811   .     S
Si21   C99     1.869   .     S
Si21   O100    1.623   .     S
Si21   O116    1.630   .     S
Si22   C101    1.802   .     S
Si22   O152    1.582   .     S
Si22   C102    1.719   1_545 S
Si22   C103    1.862   1_545 S
Si23   O104    1.597   .     S
Si23   O105    1.591   .     S
Si23   C106    1.827   .     S
Si23   C107    1.806   .     S
Si24   C108    1.860   .     S
Si24   O109    1.639   .     S
Si24   C110    1.859   .     S
Si24   O114    1.580   .     S
Si25   C111    1.887   .     S
Si25   C112    1.802   .     S
Si25   O122    1.583   .     S
Si25   O126    1.612   .     S
Si26   O114    1.612   .     S
Si26   O127    1.632   .     S
Si26   C115    1.863   1_554 S
Si26   O167    1.598   1_554 S
Si27   O116    1.600   .     S
Si27   C117    1.866   .     S
Si27   O123    1.568   .     S
Si27   O160    1.635   .     S
Si28   O118    1.609   .     S
Si28   C119    1.808   .     S
Si28   C120    1.825   .     S
Si28   C121    1.899   .     S
Si29   O122    1.569   .     S
Si29   O123    1.615   .     S
Si29   C124    1.845   .     S
Si29   C125    1.864   .     S
Si30   O126    1.659   .     S
Si30   O127    1.584   .     S
Si30   C128    1.849   .     S
Si30   O174    1.593   .     S
Si31   O129    1.629   .     S
Si31   C130    1.936   .     S
Si31   C131    1.872   .     S
Si31   C133    1.830   .     S
Si32   C134    1.811   .     S
Si32   C140    1.846   .     S
Si32   O176    1.625   1_545 S
Si32   O180    1.625   1_545 S
Si33   C136    1.868   .     S
Si33   C137    1.885   .     S
Si33   C138    1.808   .     S
Si33   O147    1.610   .     S
Si34   C141    1.841   .     S
Si34   C142    1.769   .     S
Si34   C139    1.890   1_554 S
Si34   O153    1.646   1_554 S
Si35   O143    1.626   .     S
Si35   C144    1.888   .     S
Si35   C145    1.903   .     S
Si35   O156    1.588   .     S
Si36   C146    1.923   .     S
Si36   O147    1.560   .     S
Si36   C148    1.808   .     S
Si36   C149    1.859   .     S
Si37   C150    1.849   .     S
Si37   O157    1.634   .     S
Si37   C151    1.791   1_545 S
Si37   O195    1.620   1_545 S
Si38   O152    1.576   .     S
Si38   O153    1.582   .     S
Si38   O154    1.590   .     S
Si38   O162    1.578   .     S
Si39   O155    1.637   .     S
Si39   O156    1.616   .     S
Si39   O157    1.587   .     S
Si39   O163    1.667   .     S
Si40   C159    1.843   .     S
Si40   O172    1.629   .     S
Si40   C158    1.857   1_554 S
Si40   O166    1.604   1_554 S
Si41   O160    1.614   .     S
Si41   C161    1.816   .     S
Si41   O169    1.550   .     S
Si41   O182    1.708   .     S
Si42   O162    1.598   .     S
Si42   O163    1.617   .     S
Si42   C164    1.859   .     S
Si42   O170    1.612   .     S
Si43   C165    1.880   .     S
Si43   O166    1.595   .     S
Si43   O167    1.583   .     S
Si43   O189    1.583   .     S
Si44   O168    1.619   .     S
Si44   O169    1.594   .     S
Si44   O170    1.584   .     S
Si44   O190    1.651   .     S
Si45   C171    1.880   .     S
Si45   O172    1.576   .     S
Si45   O173    1.585   .     S
Si45   O179    1.632   .     S
Si46   O174    1.633   .     S
Si46   C175    1.855   .     S
Si46   O176    1.630   .     S
Si46   C177    1.850   .     S
Si47   O179    1.541   .     S
Si47   O180    1.583   .     S
Si47   O178    1.585   1_554 S
Si47   C181    1.796   1_554 S
Si48   O182    1.624   .     S
Si48   C183    1.901   .     S
Si48   C184    1.857   .     S
Si48   O185    1.605   .     S
Si49   C186    1.910   .     S
Si49   C187    1.846   .     S
Si49   C188    1.879   .     S
Si49   O193    1.614   .     S
Si50   O189    1.596   .     S
Si50   O190    1.653   .     S
Si50   O191    1.638   .     S
Si50   O194    1.613   .     S
Si51   O192    1.556   .     S
Si51   O193    1.596   .     S
Si51   O194    1.572   .     S
Si51   O195    1.656   .     S
C52    H196    1.135   .     S
C52    H197    1.062   .     S
C52    H198    1.099   .     S
C52    Si1     1.870   1_655 S
C53    H199    1.080   .     S
C53    H200    1.094   .     S
C53    H201    1.095   .     S
C54    H202    1.098   .     S
C54    H203    1.118   .     S
C54    H204    1.120   .     S
C55    H205    1.125   .     S
C55    H206    1.049   .     S
C55    H207    1.109   .     S
C58    H208    1.093   .     S
C58    H209    1.110   .     S
C58    H210    1.109   .     S
C58    Si5     1.930   1_655 S
C59    H211    1.070   .     S
C59    H212    1.141   .     S
C59    H213    1.151   .     S
C59    Si5     1.986   1_655 S
C60    H214    1.153   .     S
C60    H215    1.131   .     S
C60    H216    1.098   .     S
C61    H217    1.048   .     S
C61    H218    1.050   .     S
C61    H219    1.119   .     S
C61    Si6     1.875   1_556 S
C62    H220    1.053   .     S
C62    H221    1.086   .     S
C62    H222    1.100   .     S
C62    Si6     1.906   1_556 S
C65    H223    1.146   .     S
C65    H224    1.053   .     S
C65    H225    1.116   .     S
C66    H226    1.100   .     S
C66    H227    1.111   .     S
C66    H228    1.111   .     S
C67    H229    1.120   .     S
C67    H230    1.142   .     S
C67    H231    1.141   .     S
C67    Si8     1.860   1_655 S
C70    H232    1.099   .     S
C70    H233    1.079   .     S
C70    H234    1.170   .     S
C71    H235    1.104   .     S
C71    H236    1.093   .     S
C71    H237    1.078   .     S
C73    H238    1.157   .     S
C73    H239    1.095   .     S
C73    H240    1.139   .     S
C74    H241    1.129   .     S
C74    H242    1.071   .     S
C74    H243    1.161   .     S
C77    H244    1.157   .     S
C77    H245    1.110   .     S
C77    H246    1.046   .     S
C78    H247    1.091   .     S
C78    H248    1.081   .     S
C78    H249    1.108   .     S
C79    H250    1.114   .     S
C79    H251    1.138   .     S
C79    H252    1.105   .     S
C79    Si12    1.796   1_655 S
C81    H253    1.103   .     S
C81    H254    1.099   .     S
C81    H255    1.069   .     S
C82    H256    1.124   .     S
C82    H257    1.090   .     S
C82    H258    1.101   .     S
C82    Si13    1.802   1_556 S
C83    H259    1.120   .     S
C83    H260    1.067   .     S
C83    H261    1.162   .     S
C84    H262    1.127   .     S
C84    H263    1.077   .     S
C84    H264    1.091   .     S
C85    H265    1.160   .     S
C85    H266    1.146   .     S
C85    H267    1.068   .     S
C86    H268    1.101   .     S
C86    H269    1.135   .     S
C86    H270    1.093   .     S
O87    Si13    1.646   1_556 S
O88    Si3     1.616   1_565 S
O91    Si3     1.616   1_565 S
C92    H271    1.077   .     S
C92    H272    1.099   .     S
C92    H273    1.076   .     S
C93    H274    1.104   .     S
C93    H275    1.128   .     S
C93    H276    1.128   .     S
C93    Si18    1.881   1_565 S
C95    H277    1.111   .     S
C95    H278    1.115   .     S
C95    H279    1.066   .     S
C96    H280    1.084   .     S
C96    H281    1.190   .     S
C96    H282    1.093   .     S
C96    Si20    1.846   1_565 S
C97    H283    1.113   .     S
C97    H284    1.112   .     S
C97    H285    1.079   .     S
C97    Si20    1.847   1_565 S
C98    H286    1.117   .     S
C98    H287    1.087   .     S
C98    H288    1.083   .     S
C99    H289    1.080   .     S
C99    H290    1.147   .     S
C99    H291    1.069   .     S
C101   H292    1.126   .     S
C101   H293    1.135   .     S
C101   H294    1.026   .     S
C102   H295    1.173   .     S
C102   H296    1.094   .     S
C102   H297    1.117   .     S
C102   Si22    1.719   1_565 S
C103   H298    1.060   .     S
C103   H299    1.055   .     S
C103   H300    1.114   .     S
C103   Si22    1.862   1_565 S
O105   Si19    1.605   1_556 S
C106   H301    1.113   .     S
C106   H302    1.120   .     S
C106   H303    1.147   .     S
C107   H304    1.109   .     S
C107   H305    1.143   .     S
C107   H306    1.126   .     S
C108   H307    1.080   .     S
C108   H308    1.122   .     S
C108   H309    1.093   .     S
C110   H310    1.087   .     S
C110   H311    1.094   .     S
C110   H312    1.122   .     S
C111   H313    1.166   .     S
C111   H314    1.137   .     S
C111   H315    1.107   .     S
C112   H316    1.076   .     S
C112   H317    1.099   .     S
C112   H318    1.145   .     S
C113   H319    1.059   .     S
C113   H320    1.130   .     S
C113   H321    1.077   .     S
C115   H322    1.090   .     S
C115   H323    1.139   .     S
C115   H324    1.057   .     S
C115   Si26    1.863   1_556 S
C117   H325    1.064   .     S
C117   H326    1.073   .     S
C117   H327    1.122   .     S
C119   H328    1.150   .     S
C119   H329    1.090   .     S
C119   H330    1.056   .     S
C120   H331    1.099   .     S
C120   H332    1.119   .     S
C120   H333    1.077   .     S
C121   H334    1.119   .     S
C121   H335    1.092   .     S
C121   H336    1.113   .     S
C124   H337    1.065   .     S
C124   H338    1.071   .     S
C124   H339    1.120   .     S
C125   H340    1.155   .     S
C125   H341    1.068   .     S
C125   H342    1.088   .     S
C128   H343    1.068   .     S
C128   H344    1.130   .     S
C128   H345    1.134   .     S
C130   H346    1.080   .     S
C130   H347    1.061   .     S
C130   H348    1.067   .     S
C131   H349    1.138   .     S
C131   H350    1.137   .     S
C131   H351    1.049   .     S
C132   H352    1.108   .     S
C132   H353    1.107   .     S
C132   H354    1.101   .     S
C132   Si18    1.940   1_565 S
C133   H355    1.064   .     S
C133   H356    1.061   .     S
C133   H357    1.097   .     S
C134   H358    1.150   .     S
C134   H359    1.103   .     S
C134   H360    1.078   .     S
C135   H361    1.099   .     S
C135   H362    1.118   .     S
C135   H363    1.115   .     S
C136   H364    1.125   .     S
C136   H365    1.132   .     S
C136   H366    1.057   .     S
C137   H367    1.148   .     S
C137   H368    1.085   .     S
C137   H369    1.117   .     S
C138   H370    1.104   .     S
C138   H371    1.112   .     S
C138   H372    1.118   .     S
C139   H373    1.087   .     S
C139   H374    1.085   .     S
C139   H375    1.095   .     S
C139   Si34    1.890   1_556 S
C140   H376    1.115   .     S
C140   H377    1.083   .     S
C140   H378    1.181   .     S
C141   H379    1.106   .     S
C141   H380    1.096   .     S
C141   H381    1.129   .     S
C142   H382    1.137   .     S
C142   H383    1.103   .     S
C142   H384    1.168   .     S
C144   H385    1.108   .     S
C144   H386    1.089   .     S
C144   H387    1.113   .     S
C145   H388    1.102   .     S
C145   H389    1.096   .     S
C145   H390    1.097   .     S
C146   H391    1.077   .     S
C146   H392    1.090   .     S
C146   H393    1.044   .     S
C148   H394    1.132   .     S
C148   H395    1.091   .     S
C148   H396    1.076   .     S
C149   H397    1.125   .     S
C149   H398    1.158   .     S
C149   H399    1.117   .     S
C150   H400    1.123   .     S
C150   H401    1.145   .     S
C150   H402    1.113   .     S
C151   H403    1.125   .     S
C151   H404    1.097   .     S
C151   H405    1.102   .     S
C151   Si37    1.791   1_565 S
O153   Si34    1.646   1_556 S
O154   Si19    1.633   1_556 S
O155   Si1     1.594   1_655 S
C158   H406    1.103   .     S
C158   H407    1.125   .     S
C158   H408    1.109   .     S
C158   Si40    1.857   1_556 S
C159   H409    1.131   .     S
C159   H410    1.082   .     S
C159   H411    1.076   .     S
C161   H412    1.148   .     S
C161   H413    1.092   .     S
C161   H414    1.087   .     S
C164   H415    1.129   .     S
C164   H416    1.082   .     S
C164   H417    1.098   .     S
C165   H418    1.131   .     S
C165   H419    1.110   .     S
C165   H420    1.099   .     S
O166   Si40    1.604   1_556 S
O167   Si26    1.598   1_556 S
O168   Si8     1.602   1_655 S
C171   H421    1.102   .     S
C171   H422    1.068   .     S
C171   H423    1.111   .     S
O173   Si12    1.605   1_655 S
C175   H424    1.144   .     S
C175   H425    1.111   .     S
C175   H426    1.091   .     S
O176   Si32    1.625   1_565 S
C177   H427    1.060   .     S
C177   H428    1.149   .     S
C177   H429    1.117   .     S
O178   Si16    1.619   1_655 S
O178   Si47    1.585   1_556 S
O180   Si32    1.625   1_565 S
C181   H430    1.104   .     S
C181   H431    1.100   .     S
C181   H432    1.121   .     S
C181   Si47    1.796   1_556 S
C183   H433    1.094   .     S
C183   H434    1.095   .     S
C183   H435    1.115   .     S
C184   H436    1.136   .     S
C184   H437    1.121   .     S
C184   H438    1.111   .     S
O185   Si14    1.540   1_655 S
C186   H439    1.058   .     S
C186   H440    1.094   .     S
C186   H441    1.114   .     S
C187   H442    1.042   .     S
C187   H443    1.087   .     S
C187   H444    1.118   .     S
C188   H445    1.106   .     S
C188   H446    1.194   .     S
C188   H447    1.085   .     S
O191   Si16    1.622   1_655 S
O192   Si14    1.577   1_655 S
O195   Si37    1.620   1_565 S
