data_333-11-11-14-15-30-17
_audit_creation_date              2025-03-07
_audit_creation_method            'Materials Studio'
_symmetry_space_group_name_H-M    'P1'
_symmetry_Int_Tables_number       1
_symmetry_cell_setting            triclinic
loop_
_symmetry_equiv_pos_as_xyz
  x,y,z
_cell_length_a                    18.0608
_cell_length_b                    15.5735
_cell_length_c                    19.3543
_cell_angle_alpha                 86.8222
_cell_angle_beta                  91.3002
_cell_angle_gamma                 120.6027
loop_
_atom_site_label
_atom_site_type_symbol
_atom_site_fract_x
_atom_site_fract_y
_atom_site_fract_z
_atom_site_U_iso_or_equiv
_atom_site_adp_type
_atom_site_occupancy
Si1    Si   -0.01034   0.21392   0.30723   0.00000  Uiso   1.00
Si2    Si    0.26571   0.18623  -0.09864   0.00000  Uiso   1.00
Si3    Si    0.09981  -0.00222   0.46562   0.00000  Uiso   1.00
Si4    Si    0.12556   0.16595   0.36380   0.00000  Uiso   1.00
Si5    Si    0.13566  -0.02955   0.73791   0.00000  Uiso   1.00
Si6    Si    0.25040   0.37628   0.88632   0.00000  Uiso   1.00
Si7    Si    0.08684   0.12634   0.70563   0.00000  Uiso   1.00
Si8    Si   -0.06935   0.53159   0.24064   0.00000  Uiso   1.00
Si9    Si    0.17104   0.58900   0.04797   0.00000  Uiso   1.00
Si10   Si    0.20925   0.35076   0.44527   0.00000  Uiso   1.00
Si11   Si   -0.07924   0.48084   0.56578   0.00000  Uiso   1.00
Si12   Si    0.21875   0.78697   0.10568   0.00000  Uiso   1.00
Si13   Si   -0.05894   0.85483   0.27220   0.00000  Uiso   1.00
Si14   Si    0.07999   0.58130   0.47312   0.00000  Uiso   1.00
Si15   Si   -0.04923   0.80730   0.53774   0.00000  Uiso   1.00
Si16   Si   -0.01658   0.82138   0.83959   0.00000  Uiso   1.00
Si17   Si    0.08732   0.80602   0.63452   0.00000  Uiso   1.00
Si18   Si    0.25693   0.22423   0.24822   0.00000  Uiso   1.00
Si19   Si    0.45387   0.06570  -0.11834   0.00000  Uiso   1.00
Si20   Si    0.49669  -0.03031   0.44570   0.00000  Uiso   1.00
Si21   Si    0.53871  -0.04955   0.72356   0.00000  Uiso   1.00
Si22   Si    0.32320   0.09162   0.79328   0.00000  Uiso   1.00
Si23   Si    0.50852   0.09843   0.62614   0.00000  Uiso   1.00
Si24   Si    0.54534   0.35460   0.44467   0.00000  Uiso   1.00
Si25   Si    0.36010   0.45998   0.54143   0.00000  Uiso   1.00
Si26   Si    0.47547   0.24146   0.70188   0.00000  Uiso   1.00
Si27   Si    0.33904   0.62221   1.09424   0.00000  Uiso   1.00
Si28   Si    0.49516   0.42936   0.61879   0.00000  Uiso   1.00
Si29   Si    0.39271   0.92608   0.18138   0.00000  Uiso   1.00
Si30   Si    0.43621   0.84800   0.31957   0.00000  Uiso   1.00
Si31   Si    0.35225   0.78522   0.75897   0.00000  Uiso   1.00
Si32   Si    0.60116   0.79853   0.72111   0.00000  Uiso   1.00
Si33   Si    0.93949   0.09103  -0.01071   0.00000  Uiso   1.00
Si34   Si    0.70330   0.11586   0.25886   0.00000  Uiso   1.00
Si35   Si    0.79749  -0.00955   0.43376   0.00000  Uiso   1.00
Si36   Si    0.64099   0.15169   0.51474   0.00000  Uiso   1.00
Si37   Si    0.83075   0.19495   0.37653   0.00000  Uiso   1.00
Si38   Si    0.62806   0.12315   0.81564   0.00000  Uiso   1.00
Si39   Si    0.77887   0.16705   0.61814   0.00000  Uiso   1.00
Si40   Si    0.66137   0.45470   0.21978   0.00000  Uiso   1.00
Si41   Si    0.79169   0.34334   0.45085   0.00000  Uiso   1.00
Si42   Si    0.66681   0.49262   0.54679   0.00000  Uiso   1.00
Si43   Si    0.79345   0.50813   0.34237   0.00000  Uiso   1.00
Si44   Si    0.77041   0.29962   0.72563   0.00000  Uiso   1.00
Si45   Si    0.80258   0.49463   0.91655   0.00000  Uiso   1.00
Si46   Si    0.79598   0.49734   0.65856   0.00000  Uiso   1.00
Si47   Si    0.88838   0.88204  -0.05837   0.00000  Uiso   1.00
Si48   Si    0.80030   0.66387   0.44847   0.00000  Uiso   1.00
Si49   Si    0.78416   0.81836   0.35573   0.00000  Uiso   1.00
Si50   Si    0.83007   0.62722   0.78634   0.00000  Uiso   1.00
Si51   Si    0.69761   0.78113   0.97759   0.00000  Uiso   1.00
C52    C     0.04947   0.32568   0.24730   0.00000  Uiso   1.00
C53    C     0.16837   0.06834  -0.06718   0.00000  Uiso   1.00
C54    C     0.34622   0.23922  -0.02301   0.00000  Uiso   1.00
C55    C     0.15646   0.08219   0.53479   0.00000  Uiso   1.00
C56    C     0.16862   0.95260   0.43277   0.00000  Uiso   1.00
O57    O     0.05340   0.18978   0.34785   0.00000  Uiso   1.00
O58    O     0.08441   0.06125   0.40720   0.00000  Uiso   1.00
O59    O     0.23709   0.26784   0.87708   0.00000  Uiso   1.00
C60    C     0.36573   0.46769   0.87265   0.00000  Uiso   1.00
C61    C     1.21423   0.38976   0.97181   0.00000  Uiso   1.00
C62    C     1.18708   0.40846   0.82100   0.00000  Uiso   1.00
C63    C    -0.00212   0.05942   0.64524   0.00000  Uiso   1.00
O64    O     0.13813   0.07272   0.71775   0.00000  Uiso   1.00
C65    C     0.04192   0.12741   0.78953   0.00000  Uiso   1.00
C66    C     0.15167   0.25047   0.66948   0.00000  Uiso   1.00
C67    C     0.05135   0.59334   0.24931   0.00000  Uiso   1.00
C68    C     0.89629   0.39750   0.24577   0.00000  Uiso   1.00
C69    C     0.09797   0.46631   0.09182   0.00000  Uiso   1.00
C70    C     0.13555   0.59613   0.95805   0.00000  Uiso   1.00
C71    C     0.10050   0.31082   0.48673   0.00000  Uiso   1.00
O72    O     0.19492   0.25837   0.40591   0.00000  Uiso   1.00
C73    C     0.24249   0.45637   0.37943   0.00000  Uiso   1.00
C74    C    -0.01875   0.43348   0.62653   0.00000  Uiso   1.00
C75    C    -0.09277   0.55273   0.15058   0.00000  Uiso   1.00
C76    C     0.13724   0.80688   0.14621   0.00000  Uiso   1.00
O77    O     0.17105   0.66985   0.09377   0.00000  Uiso   1.00
C78    C     0.24668   0.85568   0.01684   0.00000  Uiso   1.00
C79    C     0.01122   0.82443   0.32550   0.00000  Uiso   1.00
C80    C     0.00179   0.96594   0.21462   0.00000  Uiso   1.00
C81    C     0.88293   0.75746   0.20919   0.00000  Uiso   1.00
O82    O     0.00502   0.56810   0.51927   0.00000  Uiso   1.00
C83    C     0.03555   0.46403   0.42477   0.00000  Uiso   1.00
C84    C     0.12246   0.69034   0.40916   0.00000  Uiso   1.00
C85    C     0.16927   0.59257   0.53226   0.00000  Uiso   1.00
O86    O     0.00903   0.90590   0.49242   0.00000  Uiso   1.00
C87    C     0.86829   0.80849   0.59331   0.00000  Uiso   1.00
C88    C     0.02776   0.76803   0.90938   0.00000  Uiso   1.00
O89    O     0.06460   0.90846   0.79656   0.00000  Uiso   1.00
O90    O     0.01086   0.77327   0.57999   0.00000  Uiso   1.00
C91    C     0.05444   0.70244   0.70304   0.00000  Uiso   1.00
O92    O     0.11090   0.90665   0.67063   0.00000  Uiso   1.00
C93    C     0.18288   0.82685   0.58868   0.00000  Uiso   1.00
C94    C     0.23086   0.17655   0.15935   0.00000  Uiso   1.00
C95    C     0.33800   0.20270   0.29607   0.00000  Uiso   1.00
C96    C     0.30557   0.35786   0.24302   0.00000  Uiso   1.00
O97    O     0.17181   0.16512   0.29476   0.00000  Uiso   1.00
C98    C     0.44424  -0.05502  -0.08226   0.00000  Uiso   1.00
C99    C     0.47092   0.13803  -0.04633   0.00000  Uiso   1.00
C100   C     0.40435  -0.00363   0.44335   0.00000  Uiso   1.00
C101   C     0.47601   0.86744   0.51365   0.00000  Uiso   1.00
O102   O     0.23295   0.00398   0.76307   0.00000  Uiso   1.00
O103   O     0.37011   0.03945   0.83669   0.00000  Uiso   1.00
O104   O     0.31217   0.16558   0.84232   0.00000  Uiso   1.00
C105   C     0.39386   0.02339   0.60700   0.00000  Uiso   1.00
O106   O     0.53364   0.02255   0.66041   0.00000  Uiso   1.00
C107   C     0.44260   0.26469   0.48210   0.00000  Uiso   1.00
C108   C     0.55669   0.27455   0.38737   0.00000  Uiso   1.00
C109   C     0.53689   0.45685   0.40420   0.00000  Uiso   1.00
O110   O     0.28280   0.37671   0.49955   0.00000  Uiso   1.00
C111   C     0.41734   0.57782   0.49013   0.00000  Uiso   1.00
C112   C     0.31018   0.47804   0.62125   0.00000  Uiso   1.00
O113   O     0.38391   0.15664   0.72747   0.00000  Uiso   1.00
O114   O     0.52357   0.18783   0.67372   0.00000  Uiso   1.00
C115   C     0.30721   0.61098   1.18466   0.00000  Uiso   1.00
C116   C     0.42958   0.74627   1.06379   0.00000  Uiso   1.00
C117   C     0.37806   0.53567   1.08162   0.00000  Uiso   1.00
O118   O     0.25981   0.59623   1.04659   0.00000  Uiso   1.00
O119   O     0.42710   0.42543   0.56056   0.00000  Uiso   1.00
O120   O     0.47388   0.31900   0.64265   0.00000  Uiso   1.00
C121   C     0.48612   0.48609   0.69407   0.00000  Uiso   1.00
O122   O     0.30573   0.82862   0.15061   0.00000  Uiso   1.00
C123   C     0.47734   0.99585   0.11316   0.00000  Uiso   1.00
C124   C     0.36277   1.02360   0.20700   0.00000  Uiso   1.00
O125   O     0.43636   0.89382   0.24511   0.00000  Uiso   1.00
C126   C     0.32321   0.78771   0.35700   0.00000  Uiso   1.00
O127   O     0.49781   0.93488   0.37094   0.00000  Uiso   1.00
C128   C     0.45545   0.74714   0.32061   0.00000  Uiso   1.00
C129   C     0.32979   0.71755   0.67321   0.00000  Uiso   1.00
C130   C     0.34178   0.69702   0.83308   0.00000  Uiso   1.00
O131   O     0.44553   0.88733   0.76072   0.00000  Uiso   1.00
C132   C     0.26145   0.80630   0.77339   0.00000  Uiso   1.00
C133   C     0.63939   0.76007   0.64500   0.00000  Uiso   1.00
C134   C     0.51135   0.69129   0.77360   0.00000  Uiso   1.00
O135   O     0.57324   0.87911   0.70008   0.00000  Uiso   1.00
C136   C     0.69710   0.85636   0.77795   0.00000  Uiso   1.00
C137   C     0.93373   0.18610  -0.07153   0.00000  Uiso   1.00
C138   C     1.04761   0.13877   0.03538   0.00000  Uiso   1.00
C139   C     0.91744   0.11891   0.25117   0.00000  Uiso   1.00
C140   C     0.86049   1.05104   0.06232   0.00000  Uiso   1.00
C141   C     0.66372  -0.01946   0.27624   0.00000  Uiso   1.00
C142   C     0.71955   0.12973   0.16338   0.00000  Uiso   1.00
C143   C     0.61510   0.13937   0.28298   0.00000  Uiso   1.00
C144   C     0.91067   0.03307   0.45800   0.00000  Uiso   1.00
C145   C     0.73125   0.92592   0.51238   0.00000  Uiso   1.00
O146   O     0.58873   0.06284   0.46257   0.00000  Uiso   1.00
O147   O     0.56539   0.14718   0.55941   0.00000  Uiso   1.00
O148   O     0.92882   0.22723   0.36170   0.00000  Uiso   1.00
O149   O     0.78727   0.18294   0.30261   0.00000  Uiso   1.00
O150   O     0.78480   0.08480   0.41393   0.00000  Uiso   1.00
O151   O     0.60446   0.02111   0.78020   0.00000  Uiso   1.00
C152   C     0.70078   0.14163   0.89165   0.00000  Uiso   1.00
O153   O     0.53888   0.11763   0.83884   0.00000  Uiso   1.00
C154   C     0.87885   0.20215   0.56457   0.00000  Uiso   1.00
O155   O     0.69845   0.12554   0.56417   0.00000  Uiso   1.00
C156   C     0.76628   0.06931   0.68301   0.00000  Uiso   1.00
C157   C     0.64704   0.34743   0.16308   0.00000  Uiso   1.00
C158   C     0.71028   0.57147   0.16383   0.00000  Uiso   1.00
C159   C     0.55414   0.43186   0.23635   0.00000  Uiso   1.00
O160   O     0.69664   0.25967   0.47454   0.00000  Uiso   1.00
O161   O     0.82717   0.27938   0.42096   0.00000  Uiso   1.00
O162   O     0.84431   0.39842   0.51838   0.00000  Uiso   1.00
O163   O     0.61972   0.40270   0.49947   0.00000  Uiso   1.00
O164   O     0.59268   0.49519   0.58698   0.00000  Uiso   1.00
O165   O     0.88125   0.54985   0.29972   0.00000  Uiso   1.00
O166   O     0.71203   0.47013   0.29270   0.00000  Uiso   1.00
O167   O     0.77902   0.41316   0.39118   0.00000  Uiso   1.00
O168   O     0.67671   0.21502   0.75904   0.00000  Uiso   1.00
O169   O     0.78892   0.26154   0.65597   0.00000  Uiso   1.00
C170   C     0.85938   0.32565   0.78701   0.00000  Uiso   1.00
C171   C     0.53791   0.31355   0.77494   0.00000  Uiso   1.00
C172   C     0.69108   0.38136   0.91339   0.00000  Uiso   1.00
C173   C     0.87412   0.45067   0.95187   0.00000  Uiso   1.00
C174   C     0.79634   0.57394   0.98130   0.00000  Uiso   1.00
O175   O     0.87917   0.52729   0.61457   0.00000  Uiso   1.00
O176   O     0.72131   0.47058   0.60498   0.00000  Uiso   1.00
O177   O     0.76578   0.39683   0.70642   0.00000  Uiso   1.00
O178   O     0.93454   0.87120   0.87496   0.00000  Uiso   1.00
C179   C     0.93001   0.85443   0.02344   0.00000  Uiso   1.00
O180   O     0.91359   0.99526  -0.05413   0.00000  Uiso   1.00
O181   O     0.72455   0.59576   0.50446   0.00000  Uiso   1.00
O182   O     0.80088   0.59941   0.38701   0.00000  Uiso   1.00
O183   O     0.88842   0.71687   0.48821   0.00000  Uiso   1.00
O184   O     0.87628   0.86968   0.31691   0.00000  Uiso   1.00
C185   C     0.68820   0.74453   0.30161   0.00000  Uiso   1.00
O186   O     0.78501   0.75293   0.42118   0.00000  Uiso   1.00
O187   O     0.76901   0.90501   0.37887   0.00000  Uiso   1.00
O188   O     0.82797   0.54631   0.84054   0.00000  Uiso   1.00
O189   O     0.81637   0.59057   0.70581   0.00000  Uiso   1.00
C190   C     0.73959   0.64858   0.80531   0.00000  Uiso   1.00
O191   O     0.92005   0.73001   0.79163   0.00000  Uiso   1.00
C192   C     0.62073   0.65284   0.94826   0.00000  Uiso   1.00
O193   O     0.78672   0.80963   0.94267   0.00000  Uiso   1.00
C194   C     0.66027   0.87310   0.94500   0.00000  Uiso   1.00
C195   C     0.70327   0.77481   1.07475   0.00000  Uiso   1.00
H196   H     0.07845   0.39510   0.27119   0.00000  Uiso   1.00
H197   H     0.00436   0.32701   0.20751   0.00000  Uiso   1.00
H198   H     0.09954   0.31468   0.22389   0.00000  Uiso   1.00
H199   H     0.17342   0.00324  -0.07840   0.00000  Uiso   1.00
H200   H     0.10720   0.06069  -0.09735   0.00000  Uiso   1.00
H201   H     0.16036   0.07170  -0.00843   0.00000  Uiso   1.00
H202   H     0.40947   0.29211  -0.04867   0.00000  Uiso   1.00
H203   H     0.33975   0.17197   0.00754   0.00000  Uiso   1.00
H204   H     0.34084   0.28882   0.01288   0.00000  Uiso   1.00
H205   H     0.16935   0.04219   0.57996   0.00000  Uiso   1.00
H206   H     0.12467   0.12324   0.54797   0.00000  Uiso   1.00
H207   H     0.21972   0.13956   0.51532   0.00000  Uiso   1.00
H208   H     0.22585   0.97294   0.46680   0.00000  Uiso   1.00
H209   H     0.19757   0.99239   0.38383   0.00000  Uiso   1.00
H210   H     0.13587   0.87389   0.42955   0.00000  Uiso   1.00
H211   H     0.37510   0.54540   0.88050   0.00000  Uiso   1.00
H212   H     0.37871   0.45678   0.81868   0.00000  Uiso   1.00
H213   H     0.40315   0.45647   0.91245   0.00000  Uiso   1.00
H214   H     1.21504   0.33287   1.00713   0.00000  Uiso   1.00
H215   H     1.14771   0.37493   0.96838   0.00000  Uiso   1.00
H216   H     1.25229   0.46504   0.98687   0.00000  Uiso   1.00
H217   H     1.13687   0.33501   0.80411   0.00000  Uiso   1.00
H218   H     1.22268   0.45258   0.77262   0.00000  Uiso   1.00
H219   H     1.15965   0.44780   0.84552   0.00000  Uiso   1.00
H220   H    -0.06512   0.03066   0.67391   0.00000  Uiso   1.00
H221   H     0.00249  -0.00575   0.62997   0.00000  Uiso   1.00
H222   H     0.00475   0.10722   0.59656   0.00000  Uiso   1.00
H223   H     0.09570   0.15813   0.82421   0.00000  Uiso   1.00
H224   H    -0.00814   0.05813   0.81060   0.00000  Uiso   1.00
H225   H     0.01733   0.17735   0.78771   0.00000  Uiso   1.00
H226   H     0.11373   0.29215   0.65990   0.00000  Uiso   1.00
H227   H     0.17874   0.25147   0.61676   0.00000  Uiso   1.00
H228   H     0.20101   0.29969   0.70922   0.00000  Uiso   1.00
H229   H     0.06969   0.55252   0.29054   0.00000  Uiso   1.00
H230   H     0.07530   0.67035   0.26362   0.00000  Uiso   1.00
H231   H     0.07772   0.58959   0.19929   0.00000  Uiso   1.00
H232   H     0.89976   0.37258   0.19301   0.00000  Uiso   1.00
H233   H     0.82923   0.35945   0.26628   0.00000  Uiso   1.00
H234   H     0.94809   0.39688   0.27866   0.00000  Uiso   1.00
H235   H     0.12603   0.42063   0.08076   0.00000  Uiso   1.00
H236   H     0.03087   0.43750   0.07431   0.00000  Uiso   1.00
H237   H     0.10038   0.46884   0.15059   0.00000  Uiso   1.00
H238   H     0.17506   0.67257   0.93367   0.00000  Uiso   1.00
H239   H     0.06839   0.57963   0.96551   0.00000  Uiso   1.00
H240   H     0.13349   0.53838   0.92832   0.00000  Uiso   1.00
H241   H     0.10590   0.36473   0.52477   0.00000  Uiso   1.00
H242   H     0.08200   0.24550   0.51974   0.00000  Uiso   1.00
H243   H     0.05831   0.30486   0.44197   0.00000  Uiso   1.00
H244   H     0.20699   0.42990   0.32894   0.00000  Uiso   1.00
H245   H     0.30740   0.48876   0.36463   0.00000  Uiso   1.00
H246   H     0.23096   0.51366   0.39905   0.00000  Uiso   1.00
H247   H     0.01219   0.40545   0.59374   0.00000  Uiso   1.00
H248   H    -0.06675   0.36743   0.66090   0.00000  Uiso   1.00
H249   H     0.03268   0.49504   0.65431   0.00000  Uiso   1.00
H250   H    -0.06874   0.63587   0.14428   0.00000  Uiso   1.00
H251   H    -0.16117   0.50986   0.13673   0.00000  Uiso   1.00
H252   H    -0.05441   0.53127   0.11494   0.00000  Uiso   1.00
H253   H     0.07067   0.74892   0.13017   0.00000  Uiso   1.00
H254   H     0.14764   0.88198   0.13289   0.00000  Uiso   1.00
H255   H     0.14546   0.81337   0.20473   0.00000  Uiso   1.00
H256   H     0.25640   0.80531  -0.01632   0.00000  Uiso   1.00
H257   H     0.30349   0.92524   0.01928   0.00000  Uiso   1.00
H258   H     0.19287   0.86552   0.00161   0.00000  Uiso   1.00
H259   H     0.07498   0.88791   0.31429   0.00000  Uiso   1.00
H260   H    -0.00396   0.75032   0.30951   0.00000  Uiso   1.00
H261   H    -0.00399   0.82515   0.37964   0.00000  Uiso   1.00
H262   H     0.04479   1.02761   0.24465   0.00000  Uiso   1.00
H263   H    -0.04775   0.97967   0.18770   0.00000  Uiso   1.00
H264   H     0.04334   0.95492   0.17610   0.00000  Uiso   1.00
H265   H     0.83972   0.77994   0.18010   0.00000  Uiso   1.00
H266   H     0.84458   0.67848   0.23682   0.00000  Uiso   1.00
H267   H     0.92896   0.76054   0.17199   0.00000  Uiso   1.00
H268   H     0.09452   0.46824   0.40713   0.00000  Uiso   1.00
H269   H    -0.01379   0.44890   0.38460   0.00000  Uiso   1.00
H270   H     0.00669   0.40378   0.46293   0.00000  Uiso   1.00
H271   H     0.14720   0.66409   0.36997   0.00000  Uiso   1.00
H272   H     0.17874   0.75835   0.43479   0.00000  Uiso   1.00
H273   H     0.06733   0.69998   0.39323   0.00000  Uiso   1.00
H274   H     0.17429   0.63364   0.57570   0.00000  Uiso   1.00
H275   H     0.23532   0.63521   0.49965   0.00000  Uiso   1.00
H276   H     0.15747   0.51987   0.55765   0.00000  Uiso   1.00
H277   H     0.81526   0.73338   0.59717   0.00000  Uiso   1.00
H278   H     0.84422   0.86096   0.57792   0.00000  Uiso   1.00
H279   H     0.89235   0.82084   0.64731   0.00000  Uiso   1.00
H280   H     0.07207   0.74532   0.88833   0.00000  Uiso   1.00
H281   H    -0.02054   0.70610   0.94080   0.00000  Uiso   1.00
H282   H     0.06563   0.82453   0.94833   0.00000  Uiso   1.00
H283   H    -0.01396   0.65124   0.69720   0.00000  Uiso   1.00
H284   H     0.06515   0.73366   0.75334   0.00000  Uiso   1.00
H285   H     0.08902   0.66245   0.69799   0.00000  Uiso   1.00
H286   H     0.17462   0.80321   0.53752   0.00000  Uiso   1.00
H287   H     0.21666   0.79565   0.62253   0.00000  Uiso   1.00
H288   H     0.22911   0.90580   0.58366   0.00000  Uiso   1.00
H289   H     0.28675   0.22095   0.12642   0.00000  Uiso   1.00
H290   H     0.17693   0.18372   0.13798   0.00000  Uiso   1.00
H291   H     0.21915   0.09864   0.16068   0.00000  Uiso   1.00
H292   H     0.30697   0.12354   0.31682   0.00000  Uiso   1.00
H293   H     0.36208   0.25561   0.33814   0.00000  Uiso   1.00
H294   H     0.39324   0.21668   0.26567   0.00000  Uiso   1.00
H295   H     0.32739   0.38546   0.29654   0.00000  Uiso   1.00
H296   H     0.25796   0.37828   0.22113   0.00000  Uiso   1.00
H297   H     0.36558   0.38090   0.21104   0.00000  Uiso   1.00
H298   H     0.37768  -0.11817  -0.06250   0.00000  Uiso   1.00
H299   H     0.49347  -0.03528  -0.04132   0.00000  Uiso   1.00
H300   H     0.46962  -0.07987  -0.12326   0.00000  Uiso   1.00
H301   H     0.53116   0.15855  -0.01999   0.00000  Uiso   1.00
H302   H     0.41563   0.10108  -0.00586   0.00000  Uiso   1.00
H303   H     0.47543   0.21173  -0.06216   0.00000  Uiso   1.00
H304   H     0.35106  -0.06989   0.46206   0.00000  Uiso   1.00
H305   H     0.39736   0.01983   0.38720   0.00000  Uiso   1.00
H306   H     0.41394   0.05533   0.47559   0.00000  Uiso   1.00
H307   H     0.41831   0.79941   0.49846   0.00000  Uiso   1.00
H308   H     0.47047   0.88990   0.56642   0.00000  Uiso   1.00
H309   H     0.52852   0.84553   0.51244   0.00000  Uiso   1.00
H310   H     0.37561  -0.04565   0.58129   0.00000  Uiso   1.00
H311   H     0.36224   0.06307   0.57996   0.00000  Uiso   1.00
H312   H     0.35999  -0.01298   0.65624   0.00000  Uiso   1.00
H313   H     0.40510   0.19474   0.45062   0.00000  Uiso   1.00
H314   H     0.40328   0.29766   0.48509   0.00000  Uiso   1.00
H315   H     0.45588   0.24498   0.53373   0.00000  Uiso   1.00
H316   H     0.51125   0.25876   0.34395   0.00000  Uiso   1.00
H317   H     0.53219   0.20325   0.42121   0.00000  Uiso   1.00
H318   H     0.62244   0.30102   0.36595   0.00000  Uiso   1.00
H319   H     0.59845   0.50043   0.37657   0.00000  Uiso   1.00
H320   H     0.53478   0.49854   0.44651   0.00000  Uiso   1.00
H321   H     0.48175   0.42557   0.36703   0.00000  Uiso   1.00
H322   H     0.43761   0.56671   0.43770   0.00000  Uiso   1.00
H323   H     0.47005   0.62302   0.52280   0.00000  Uiso   1.00
H324   H     0.37444   0.61106   0.48203   0.00000  Uiso   1.00
H325   H     0.24021   0.44693   0.61004   0.00000  Uiso   1.00
H326   H     0.33146   0.55394   0.62123   0.00000  Uiso   1.00
H327   H     0.31890   0.44229   0.67118   0.00000  Uiso   1.00
H328   H     0.31637   0.56022   1.21645   0.00000  Uiso   1.00
H329   H     0.23974   0.58407   1.18682   0.00000  Uiso   1.00
H330   H     0.33793   0.68338   1.20451   0.00000  Uiso   1.00
H331   H     0.45146   0.74194   1.01241   0.00000  Uiso   1.00
H332   H     0.48355   0.77250   1.09715   0.00000  Uiso   1.00
H333   H     0.41298   0.80441   1.06566   0.00000  Uiso   1.00
H334   H     0.33053   0.45207   1.08722   0.00000  Uiso   1.00
H335   H     0.41873   0.54633   1.12527   0.00000  Uiso   1.00
H336   H     0.42177   0.55611   1.03717   0.00000  Uiso   1.00
H337   H     0.42821   0.42903   0.72526   0.00000  Uiso   1.00
H338   H     0.48224   0.55256   0.67645   0.00000  Uiso   1.00
H339   H     0.54170   0.50469   0.72463   0.00000  Uiso   1.00
H340   H     0.44881   1.01300   0.06681   0.00000  Uiso   1.00
H341   H     0.51685   0.96133   0.10303   0.00000  Uiso   1.00
H342   H     0.51830   1.06517   0.13616   0.00000  Uiso   1.00
H343   H     0.32989   1.03920   0.16179   0.00000  Uiso   1.00
H344   H     0.42297   1.09406   0.22057   0.00000  Uiso   1.00
H345   H     0.31467   0.99472   0.24647   0.00000  Uiso   1.00
H346   H     0.31991   0.76368   0.41126   0.00000  Uiso   1.00
H347   H     0.27756   0.71668   0.33156   0.00000  Uiso   1.00
H348   H     0.30576   0.84600   0.36379   0.00000  Uiso   1.00
H349   H     0.39229   0.67742   0.33396   0.00000  Uiso   1.00
H350   H     0.50361   0.75472   0.36135   0.00000  Uiso   1.00
H351   H     0.48370   0.74407   0.27115   0.00000  Uiso   1.00
H352   H     0.27911   0.63875   0.67896   0.00000  Uiso   1.00
H353   H     0.38929   0.71621   0.66218   0.00000  Uiso   1.00
H354   H     0.31999   0.75674   0.62697   0.00000  Uiso   1.00
H355   H     0.39432   0.72713   0.86763   0.00000  Uiso   1.00
H356   H     0.33852   0.63478   0.81457   0.00000  Uiso   1.00
H357   H     0.27908   0.66941   0.86236   0.00000  Uiso   1.00
H358   H     0.19784   0.73144   0.78411   0.00000  Uiso   1.00
H359   H     0.25164   0.84421   0.72606   0.00000  Uiso   1.00
H360   H     0.27695   0.85192   0.81781   0.00000  Uiso   1.00
H361   H     0.59901   0.75855   0.60215   0.00000  Uiso   1.00
H362   H     0.64397   0.69313   0.65570   0.00000  Uiso   1.00
H363   H     0.70215   0.82124   0.63039   0.00000  Uiso   1.00
H364   H     0.45192   0.66031   0.73790   0.00000  Uiso   1.00
H365   H     0.49782   0.71918   0.81877   0.00000  Uiso   1.00
H366   H     0.52907   0.63337   0.78612   0.00000  Uiso   1.00
H367   H     0.75226   0.88871   0.74651   0.00000  Uiso   1.00
H368   H     0.69200   0.80450   0.82256   0.00000  Uiso   1.00
H369   H     0.68747   0.91650   0.79672   0.00000  Uiso   1.00
H370   H     0.89465   0.14251  -0.11651   0.00000  Uiso   1.00
H371   H     0.99759   0.24177  -0.08993   0.00000  Uiso   1.00
H372   H     0.90046   0.21533  -0.04111   0.00000  Uiso   1.00
H373   H     1.09875   0.18042  -0.00379   0.00000  Uiso   1.00
H374   H     1.05566   0.07815   0.05796   0.00000  Uiso   1.00
H375   H     1.05064   0.19034   0.07379   0.00000  Uiso   1.00
H376   H     0.87934   0.04408   0.27753   0.00000  Uiso   1.00
H377   H     0.95201   0.10929   0.21141   0.00000  Uiso   1.00
H378   H     0.87927   0.14930   0.22486   0.00000  Uiso   1.00
H379   H     0.88657   1.10980   0.09933   0.00000  Uiso   1.00
H380   H     0.85382   0.98206   0.09169   0.00000  Uiso   1.00
H381   H     0.79466   1.02630   0.04514   0.00000  Uiso   1.00
H382   H     0.71900  -0.03388   0.26815   0.00000  Uiso   1.00
H383   H     0.61957  -0.05673   0.23274   0.00000  Uiso   1.00
H384   H     0.63494  -0.05664   0.32941   0.00000  Uiso   1.00
H385   H     0.65502   0.08487   0.14657   0.00000  Uiso   1.00
H386   H     0.76388   0.10677   0.14848   0.00000  Uiso   1.00
H387   H     0.73965   0.20443   0.14534   0.00000  Uiso   1.00
H388   H     0.55624   0.08797   0.25315   0.00000  Uiso   1.00
H389   H     0.63791   0.22062   0.27169   0.00000  Uiso   1.00
H390   H     0.59870   0.12478   0.33883   0.00000  Uiso   1.00
H391   H     0.93918   0.00547   0.42225   0.00000  Uiso   1.00
H392   H     0.90535  -0.00458   0.51200   0.00000  Uiso   1.00
H393   H     0.95182   0.11497   0.46612   0.00000  Uiso   1.00
H394   H     0.71988   0.85098   0.51739   0.00000  Uiso   1.00
H395   H     0.66844   0.92518   0.50472   0.00000  Uiso   1.00
H396   H     0.76301   0.96632   0.55902   0.00000  Uiso   1.00
H397   H     0.66622   0.07648   0.93112   0.00000  Uiso   1.00
H398   H     0.71982   0.21161   0.92099   0.00000  Uiso   1.00
H399   H     0.75937   0.14569   0.87737   0.00000  Uiso   1.00
H400   H     0.90615   0.27564   0.53452   0.00000  Uiso   1.00
H401   H     0.86537   0.14381   0.52834   0.00000  Uiso   1.00
H402   H     0.92773   0.20850   0.60139   0.00000  Uiso   1.00
H403   H     0.73331   0.06727   0.73050   0.00000  Uiso   1.00
H404   H     0.82611   0.07965   0.70271   0.00000  Uiso   1.00
H405   H     0.72978   0.00101   0.65339   0.00000  Uiso   1.00
H406   H     0.64431   0.36941   0.10881   0.00000  Uiso   1.00
H407   H     0.58525   0.27529   0.17797   0.00000  Uiso   1.00
H408   H     0.70794   0.34563   0.17030   0.00000  Uiso   1.00
H409   H     0.77345   0.59186   0.14603   0.00000  Uiso   1.00
H410   H     0.70629   0.63215   0.18681   0.00000  Uiso   1.00
H411   H     0.67878   0.55405   0.11134   0.00000  Uiso   1.00
H412   H     0.51314   0.36733   0.27375   0.00000  Uiso   1.00
H413   H     0.51978   0.42150   0.18598   0.00000  Uiso   1.00
H414   H     0.55285   0.49326   0.25660   0.00000  Uiso   1.00
H415   H     0.88322   0.27244   0.78702   0.00000  Uiso   1.00
H416   H     0.82934   0.31704   0.83685   0.00000  Uiso   1.00
H417   H     0.91903   0.40812   0.78992   0.00000  Uiso   1.00
H418   H     0.53438   0.26151   0.81516   0.00000  Uiso   1.00
H419   H     0.50767   0.35420   0.79570   0.00000  Uiso   1.00
H420   H     0.60345   0.37084   0.75539   0.00000  Uiso   1.00
H421   H     0.68389   0.32316   0.87443   0.00000  Uiso   1.00
H422   H     0.64624   0.40354   0.89536   0.00000  Uiso   1.00
H423   H     0.67512   0.33765   0.96591   0.00000  Uiso   1.00
H424   H     0.90840   0.49550   0.99458   0.00000  Uiso   1.00
H425   H     0.92629   0.46410   0.91792   0.00000  Uiso   1.00
H426   H     0.83416   0.37251   0.96665   0.00000  Uiso   1.00
H427   H     0.72955   0.53152   1.00445   0.00000  Uiso   1.00
H428   H     0.78887   0.63339   0.95134   0.00000  Uiso   1.00
H429   H     0.84845   0.60354   1.01842   0.00000  Uiso   1.00
H430   H     0.93114   0.78596   0.01245   0.00000  Uiso   1.00
H431   H     0.89992   0.86009   0.07142   0.00000  Uiso   1.00
H432   H     0.99967   0.91287   0.02661   0.00000  Uiso   1.00
H433   H     0.68627   0.67664   0.28813   0.00000  Uiso   1.00
H434   H     0.69216   0.78943   0.25446   0.00000  Uiso   1.00
H435   H     0.62820   0.72128   0.33089   0.00000  Uiso   1.00
H436   H     0.73029   0.69487   0.76180   0.00000  Uiso   1.00
H437   H     0.74915   0.68379   0.85370   0.00000  Uiso   1.00
H438   H     0.68386   0.57488   0.80455   0.00000  Uiso   1.00
H439   H     0.59246   0.66424   0.89815   0.00000  Uiso   1.00
H440   H     0.57631   0.60860   0.99219   0.00000  Uiso   1.00
H441   H     0.65931   0.61692   0.93374   0.00000  Uiso   1.00
H442   H     0.60272   0.83178   0.91097   0.00000  Uiso   1.00
H443   H     0.71826   0.93491   0.92341   0.00000  Uiso   1.00
H444   H     0.64128   0.90343   0.98458   0.00000  Uiso   1.00
H445   H     0.64185   0.71261   1.09615   0.00000  Uiso   1.00
H446   H     0.71846   0.84643   1.10091   0.00000  Uiso   1.00
H447   H     0.76039   0.76346   1.08834   0.00000  Uiso   1.00
loop_
_geom_bond_atom_site_label_1
_geom_bond_atom_site_label_2
_geom_bond_distance
_geom_bond_site_symmetry_2
_ccdc_geom_bond_type
Si1    C52     1.860   .     S
Si1    O57     1.566   .     S
Si1    C139    1.794   1_455 S
Si1    O148    1.634   1_455 S
Si2    C53     1.863   .     S
Si2    C54     1.937   .     S
Si2    O59     1.642   1_554 S
Si2    O104    1.572   1_554 S
Si3    C55     1.825   .     S
Si3    O58     1.573   .     S
Si3    C56     1.849   1_545 S
Si3    O86     1.604   1_545 S
Si4    O57     1.547   .     S
Si4    O58     1.600   .     S
Si4    O72     1.598   .     S
Si4    O97     1.596   .     S
Si5    O64     1.597   .     S
Si5    O102    1.629   .     S
Si5    O89     1.597   1_545 S
Si5    O92     1.596   1_545 S
Si6    O59     1.600   .     S
Si6    C60     1.844   .     S
Si6    C61     1.854   1_455 S
Si6    C62     1.899   1_455 S
Si7    C63     1.838   .     S
Si7    O64     1.538   .     S
Si7    C65     1.836   .     S
Si7    C66     1.783   .     S
Si8    C67     1.890   .     S
Si8    C75     1.836   .     S
Si8    C68     1.848   1_455 S
Si8    O165    1.589   1_455 S
Si9    C69     1.848   .     S
Si9    O77     1.579   .     S
Si9    C70     1.858   1_554 S
Si9    O118    1.550   1_554 S
Si10   C71     1.913   .     S
Si10   O72     1.565   .     S
Si10   C73     1.867   .     S
Si10   O110    1.571   .     S
Si11   C74     1.946   .     S
Si11   O82     1.672   .     S
Si11   O162    1.632   1_455 S
Si11   O175    1.625   1_455 S
Si12   C76     1.850   .     S
Si12   O77     1.600   .     S
Si12   C78     1.908   .     S
Si12   O122    1.615   .     S
Si13   C79     1.841   .     S
Si13   C80     1.830   .     S
Si13   C81     1.848   1_455 S
Si13   O184    1.586   1_455 S
Si14   O82     1.557   .     S
Si14   C83     1.876   .     S
Si14   C84     1.868   .     S
Si14   C85     1.895   .     S
Si15   O86     1.575   .     S
Si15   O90     1.620   .     S
Si15   C87     1.865   1_455 S
Si15   O183    1.630   1_455 S
Si16   C88     1.913   .     S
Si16   O89     1.609   .     S
Si16   O178    1.623   1_455 S
Si16   O191    1.624   1_455 S
Si17   O90     1.599   .     S
Si17   C91     1.881   .     S
Si17   O92     1.598   .     S
Si17   C93     1.827   .     S
Si18   C94     1.866   .     S
Si18   C95     1.875   .     S
Si18   C96     1.798   .     S
Si18   O97     1.598   .     S
Si19   C98     1.892   .     S
Si19   C99     1.763   .     S
Si19   O103    1.601   1_554 S
Si19   O153    1.555   1_554 S
Si20   C100    1.912   .     S
Si20   O146    1.596   .     S
Si20   C101    1.895   1_545 S
Si20   O127    1.577   1_545 S
Si21   O106    1.646   .     S
Si21   O151    1.602   .     S
Si21   O131    1.615   1_545 S
Si21   O135    1.614   1_545 S
Si22   O102    1.625   .     S
Si22   O103    1.636   .     S
Si22   O104    1.622   .     S
Si22   O113    1.625   .     S
Si23   C105    1.828   .     S
Si23   O106    1.577   .     S
Si23   O114    1.614   .     S
Si23   O147    1.568   .     S
Si24   C107    1.798   .     S
Si24   C108    1.803   .     S
Si24   C109    1.810   .     S
Si24   O163    1.578   .     S
Si25   O110    1.584   .     S
Si25   C111    1.826   .     S
Si25   C112    1.910   .     S
Si25   O119    1.585   .     S
Si26   O113    1.570   .     S
Si26   O114    1.600   .     S
Si26   O120    1.629   .     S
Si26   C171    1.829   .     S
Si27   C115    1.826   .     S
Si27   C116    1.859   .     S
Si27   C117    1.840   .     S
Si27   O118    1.566   .     S
Si28   O119    1.629   .     S
Si28   O120    1.601   .     S
Si28   C121    1.797   .     S
Si28   O164    1.635   .     S
Si29   O122    1.660   .     S
Si29   C123    1.871   .     S
Si29   C124    1.943   .     S
Si29   O125    1.639   .     S
Si30   O125    1.572   .     S
Si30   C126    1.900   .     S
Si30   O127    1.620   .     S
Si30   C128    1.772   .     S
Si31   C129    1.939   .     S
Si31   C130    1.873   .     S
Si31   O131    1.626   .     S
Si31   C132    1.859   .     S
Si32   C133    1.890   .     S
Si32   C134    1.892   .     S
Si32   O135    1.604   .     S
Si32   C136    1.860   .     S
Si33   C137    1.883   .     S
Si33   C138    1.918   .     S
Si33   C140    1.874   1_545 S
Si33   O180    1.600   1_545 S
Si34   C141    1.861   .     S
Si34   C142    1.861   .     S
Si34   C143    1.881   .     S
Si34   O149    1.592   .     S
Si35   C144    1.857   .     S
Si35   O150    1.623   .     S
Si35   C145    1.856   1_545 S
Si35   O187    1.612   1_545 S
Si36   O146    1.615   .     S
Si36   O147    1.602   .     S
Si36   O155    1.581   .     S
Si36   O160    1.616   .     S
Si37   O148    1.604   .     S
Si37   O149    1.590   .     S
Si37   O150    1.611   .     S
Si37   O161    1.639   .     S
Si38   O151    1.611   .     S
Si38   C152    1.883   .     S
Si38   O153    1.640   .     S
Si38   O168    1.615   .     S
Si39   C154    1.911   .     S
Si39   O155    1.634   .     S
Si39   C156    1.842   .     S
Si39   O169    1.605   .     S
Si40   C157    1.952   .     S
Si40   C158    1.857   .     S
Si40   C159    1.815   .     S
Si40   O166    1.625   .     S
Si41   O160    1.596   .     S
Si41   O161    1.571   .     S
Si41   O162    1.608   .     S
Si41   O167    1.634   .     S
Si42   O163    1.555   .     S
Si42   O164    1.583   .     S
Si42   O176    1.614   .     S
Si42   O181    1.589   .     S
Si43   O165    1.603   .     S
Si43   O166    1.597   .     S
Si43   O167    1.616   .     S
Si43   O182    1.650   .     S
Si44   O168    1.644   .     S
Si44   O169    1.610   .     S
Si44   C170    1.860   .     S
Si44   O177    1.582   .     S
Si45   C172    1.887   .     S
Si45   C173    1.848   .     S
Si45   C174    1.852   .     S
Si45   O188    1.595   .     S
Si46   O175    1.581   .     S
Si46   O176    1.575   .     S
Si46   O177    1.612   .     S
Si46   O189    1.633   .     S
Si47   C179    1.859   .     S
Si47   O180    1.588   .     S
Si47   O178    1.614   1_554 S
Si47   O193    1.592   1_554 S
Si48   O181    1.623   .     S
Si48   O182    1.602   .     S
Si48   O183    1.576   .     S
Si48   O186    1.607   .     S
Si49   O184    1.615   .     S
Si49   C185    1.856   .     S
Si49   O186    1.586   .     S
Si49   O187    1.595   .     S
Si50   O188    1.580   .     S
Si50   O189    1.659   .     S
Si50   C190    1.873   .     S
Si50   O191    1.605   .     S
Si51   C192    1.873   .     S
Si51   O193    1.591   .     S
Si51   C194    1.941   .     S
Si51   C195    1.881   .     S
C52    H196    1.061   .     S
C52    H197    1.116   .     S
C52    H198    1.112   .     S
C53    H199    1.097   .     S
C53    H200    1.192   .     S
C53    H201    1.157   .     S
C54    H202    1.119   .     S
C54    H203    1.127   .     S
C54    H204    1.108   .     S
C55    H205    1.133   .     S
C55    H206    1.096   .     S
C55    H207    1.090   .     S
C56    H208    1.123   .     S
C56    H209    1.087   .     S
C56    H210    1.061   .     S
C56    Si3     1.849   1_565 S
O59    Si2     1.642   1_556 S
C60    H211    1.152   .     S
C60    H212    1.116   .     S
C60    H213    1.078   .     S
C61    H214    1.095   .     S
C61    H215    1.103   .     S
C61    H216    1.068   .     S
C61    Si6     1.854   1_655 S
C62    H217    1.100   .     S
C62    H218    1.126   .     S
C62    H219    1.094   .     S
C62    Si6     1.899   1_655 S
C63    H220    1.134   .     S
C63    H221    1.116   .     S
C63    H222    1.136   .     S
C65    H223    1.075   .     S
C65    H224    1.060   .     S
C65    H225    1.073   .     S
C66    H226    1.166   .     S
C66    H227    1.137   .     S
C66    H228    1.145   .     S
C67    H229    1.139   .     S
C67    H230    1.098   .     S
C67    H231    1.106   .     S
C68    H232    1.126   .     S
C68    H233    1.114   .     S
C68    H234    1.123   .     S
C68    Si8     1.848   1_655 S
C69    H235    1.094   .     S
C69    H236    1.109   .     S
C69    H237    1.140   .     S
C70    H238    1.112   .     S
C70    H239    1.116   .     S
C70    H240    1.079   .     S
C70    Si9     1.858   1_556 S
C71    H241    1.113   .     S
C71    H242    1.071   .     S
C71    H243    1.116   .     S
C73    H244    1.133   .     S
C73    H245    1.053   .     S
C73    H246    1.102   .     S
C74    H247    1.096   .     S
C74    H248    1.138   .     S
C74    H249    1.095   .     S
C75    H250    1.137   .     S
C75    H251    1.099   .     S
C75    H252    1.162   .     S
C76    H253    1.125   .     S
C76    H254    1.102   .     S
C76    H255    1.142   .     S
C78    H256    1.122   .     S
C78    H257    1.049   .     S
C78    H258    1.090   .     S
C79    H259    1.086   .     S
C79    H260    1.103   .     S
C79    H261    1.091   .     S
C80    H262    1.070   .     S
C80    H263    1.131   .     S
C80    H264    1.148   .     S
C81    H265    1.134   .     S
C81    H266    1.164   .     S
C81    H267    1.093   .     S
C81    Si13    1.848   1_655 S
C83    H268    1.095   .     S
C83    H269    1.109   .     S
C83    H270    1.068   .     S
C84    H271    1.085   .     S
C84    H272    1.158   .     S
C84    H273    1.114   .     S
C85    H274    1.059   .     S
C85    H275    1.201   .     S
C85    H276    1.125   .     S
O86    Si3     1.604   1_565 S
C87    H277    1.070   .     S
C87    H278    1.129   .     S
C87    H279    1.111   .     S
C87    Si15    1.865   1_655 S
C88    H280    1.118   .     S
C88    H281    1.079   .     S
C88    H282    1.117   .     S
O89    Si5     1.597   1_565 S
C91    H283    1.084   .     S
C91    H284    1.082   .     S
C91    H285    1.092   .     S
O92    Si5     1.596   1_565 S
C93    H286    1.056   .     S
C93    H287    1.134   .     S
C93    H288    1.079   .     S
C94    H289    1.083   .     S
C94    H290    1.104   .     S
C94    H291    1.119   .     S
C95    H292    1.117   .     S
C95    H293    1.107   .     S
C95    H294    1.086   .     S
C96    H295    1.127   .     S
C96    H296    1.126   .     S
C96    H297    1.139   .     S
C98    H298    1.155   .     S
C98    H299    1.109   .     S
C98    H300    1.105   .     S
C99    H301    1.089   .     S
C99    H302    1.159   .     S
C99    H303    1.133   .     S
C100   H304    1.042   .     S
C100   H305    1.152   .     S
C100   H306    1.077   .     S
C101   H307    1.092   .     S
C101   H308    1.120   .     S
C101   H309    1.161   .     S
C101   Si20    1.895   1_565 S
O103   Si19    1.601   1_556 S
O104   Si2     1.572   1_556 S
C105   H310    1.097   .     S
C105   H311    1.137   .     S
C105   H312    1.103   .     S
C107   H313    1.149   .     S
C107   H314    1.071   .     S
C107   H315    1.086   .     S
C108   H316    1.107   .     S
C108   H317    1.136   .     S
C108   H318    1.121   .     S
C109   H319    1.096   .     S
C109   H320    1.086   .     S
C109   H321    1.122   .     S
C111   H322    1.138   .     S
C111   H323    1.068   .     S
C111   H324    1.134   .     S
C112   H325    1.120   .     S
C112   H326    1.040   .     S
C112   H327    1.136   .     S
C115   H328    1.051   .     S
C115   H329    1.069   .     S
C115   H330    1.062   .     S
C116   H331    1.096   .     S
C116   H332    1.063   .     S
C116   H333    1.092   .     S
C117   H334    1.138   .     S
C117   H335    1.070   .     S
C117   H336    1.099   .     S
O118   Si9     1.550   1_556 S
C121   H337    1.127   .     S
C121   H338    1.108   .     S
C121   H339    1.067   .     S
C123   H340    1.111   .     S
C123   H341    1.116   .     S
C123   H342    1.066   .     S
C124   H343    1.130   .     S
C124   H344    1.122   .     S
C124   H345    1.065   .     S
C126   H346    1.088   .     S
C126   H347    1.122   .     S
C126   H348    1.117   .     S
O127   Si20    1.577   1_565 S
C128   H349    1.126   .     S
C128   H350    1.125   .     S
C128   H351    1.110   .     S
C129   H352    1.096   .     S
C129   H353    1.111   .     S
C129   H354    1.117   .     S
C130   H355    1.058   .     S
C130   H356    1.025   .     S
C130   H357    1.138   .     S
O131   Si21    1.615   1_565 S
C132   H358    1.159   .     S
C132   H359    1.122   .     S
C132   H360    1.085   .     S
C133   H361    1.085   .     S
C133   H362    1.095   .     S
C133   H363    1.076   .     S
C134   H364    1.157   .     S
C134   H365    1.083   .     S
C134   H366    1.114   .     S
O135   Si21    1.614   1_565 S
C136   H367    1.048   .     S
C136   H368    1.121   .     S
C136   H369    1.116   .     S
C137   H370    1.125   .     S
C137   H371    1.084   .     S
C137   H372    1.113   .     S
C138   H373    1.103   .     S
C138   H374    1.093   .     S
C138   H375    1.105   .     S
C139   H376    1.107   .     S
C139   H377    1.065   .     S
C139   H378    1.117   .     S
C139   Si1     1.794   1_655 S
C140   H379    1.091   .     S
C140   H380    1.138   .     S
C140   H381    1.097   .     S
C140   Si33    1.874   1_565 S
C141   H382    1.145   .     S
C141   H383    1.111   .     S
C141   H384    1.147   .     S
C142   H385    1.064   .     S
C142   H386    1.080   .     S
C142   H387    1.067   .     S
C143   H388    1.123   .     S
C143   H389    1.123   .     S
C143   H390    1.108   .     S
C144   H391    1.097   .     S
C144   H392    1.151   .     S
C144   H393    1.121   .     S
C145   H394    1.076   .     S
C145   H395    1.135   .     S
C145   H396    1.101   .     S
C145   Si35    1.856   1_565 S
O148   Si1     1.634   1_655 S
C152   H397    1.137   .     S
C152   H398    1.143   .     S
C152   H399    1.069   .     S
O153   Si19    1.555   1_556 S
C154   H400    1.121   .     S
C154   H401    1.102   .     S
C154   H402    1.090   .     S
C156   H403    1.097   .     S
C156   H404    1.072   .     S
C156   H405    1.110   .     S
C157   H406    1.094   .     S
C157   H407    1.137   .     S
C157   H408    1.120   .     S
C158   H409    1.076   .     S
C158   H410    1.101   .     S
C158   H411    1.130   .     S
C159   H412    1.126   .     S
C159   H413    1.118   .     S
C159   H414    1.064   .     S
O162   Si11    1.632   1_655 S
O165   Si8     1.589   1_655 S
C170   H415    1.111   .     S
C170   H416    1.085   .     S
C170   H417    1.187   .     S
C171   H418    1.071   .     S
C171   H419    1.118   .     S
C171   H420    1.117   .     S
C172   H421    1.166   .     S
C172   H422    1.075   .     S
C172   H423    1.147   .     S
C173   H424    1.075   .     S
C173   H425    1.084   .     S
C173   H426    1.077   .     S
C174   H427    1.128   .     S
C174   H428    1.130   .     S
C174   H429    1.086   .     S
O175   Si11    1.625   1_655 S
O178   Si16    1.623   1_655 S
O178   Si47    1.614   1_556 S
C179   H430    1.109   .     S
C179   H431    1.116   .     S
C179   H432    1.119   .     S
O180   Si33    1.600   1_565 S
O183   Si15    1.630   1_655 S
O184   Si13    1.586   1_655 S
C185   H433    1.086   .     S
C185   H434    1.099   .     S
C185   H435    1.110   .     S
O187   Si35    1.612   1_565 S
C190   H436    1.143   .     S
C190   H437    1.077   .     S
C190   H438    1.075   .     S
O191   Si16    1.624   1_655 S
C192   H439    1.133   .     S
C192   H440    1.116   .     S
C192   H441    1.140   .     S
O193   Si47    1.592   1_556 S
C194   H442    1.124   .     S
C194   H443    1.071   .     S
C194   H444    1.070   .     S
C195   H445    1.106   .     S
C195   H446    1.149   .     S
C195   H447    1.154   .     S
