data_333-11-11-14-15-30-1
_audit_creation_date              2025-03-07
_audit_creation_method            'Materials Studio'
_symmetry_space_group_name_H-M    'P1'
_symmetry_Int_Tables_number       1
_symmetry_cell_setting            triclinic
loop_
_symmetry_equiv_pos_as_xyz
  x,y,z
_cell_length_a                    16.3407
_cell_length_b                    17.6619
_cell_length_c                    18.7801
_cell_angle_alpha                 83.0064
_cell_angle_beta                  96.4145
_cell_angle_gamma                 123.3778
loop_
_atom_site_label
_atom_site_type_symbol
_atom_site_fract_x
_atom_site_fract_y
_atom_site_fract_z
_atom_site_U_iso_or_equiv
_atom_site_adp_type
_atom_site_occupancy
Si1    Si    0.20136   0.09385   0.17540   0.00000  Uiso   1.00
Si2    Si    0.01107   0.22519   0.26993   0.00000  Uiso   1.00
Si3    Si   -0.00164   0.17604   0.52053   0.00000  Uiso   1.00
Si4    Si    0.20643   0.25800   0.34274   0.00000  Uiso   1.00
Si5    Si   -0.01743   0.14128   0.85780   0.00000  Uiso   1.00
Si6    Si    0.11790   0.16261   0.64830   0.00000  Uiso   1.00
Si7    Si    0.01437   0.47533   0.22445   0.00000  Uiso   1.00
Si8    Si    0.18966   0.35386   0.45378   0.00000  Uiso   1.00
Si9    Si    0.17005   0.47953   0.33453   0.00000  Uiso   1.00
Si10   Si    0.13236   0.28249   0.75607   0.00000  Uiso   1.00
Si11   Si   -0.03979   0.48313   0.92050   0.00000  Uiso   1.00
Si12   Si    0.18573   0.44913   0.66523   0.00000  Uiso   1.00
Si13   Si    0.19769   0.64526   0.40339   0.00000  Uiso   1.00
Si14   Si    0.12925   0.93867   0.47766   0.00000  Uiso   1.00
Si15   Si    0.13200   0.75962   0.31125   0.00000  Uiso   1.00
Si16   Si    0.18507   0.81661   0.54994   0.00000  Uiso   1.00
Si17   Si    0.59765   0.04589   0.19275   0.00000  Uiso   1.00
Si18   Si    0.36231   0.25150   0.26156   0.00000  Uiso   1.00
Si19   Si    0.50979   0.19903   0.32998   0.00000  Uiso   1.00
Si20   Si    0.47102  -0.02759   0.74304   0.00000  Uiso   1.00
Si21   Si    0.35791   0.16875   0.90236   0.00000  Uiso   1.00
Si22   Si    0.50753   0.16631   0.69868   0.00000  Uiso   1.00
Si23   Si    0.49072   0.39207   0.14111   0.00000  Uiso   1.00
Si24   Si    0.29903   0.51747   0.21028   0.00000  Uiso   1.00
Si25   Si    0.48863   0.45825  -0.01439   0.00000  Uiso   1.00
Si26   Si    0.35185   0.48203   0.58107   0.00000  Uiso   1.00
Si27   Si    0.49285   0.29695   0.78478   0.00000  Uiso   1.00
Si28   Si    0.31978   0.48403   0.93879   0.00000  Uiso   1.00
Si29   Si    0.48511   0.44510   0.68561   0.00000  Uiso   1.00
Si30   Si    0.35989   0.71523   0.16467   0.00000  Uiso   1.00
Si31   Si    0.50713   0.66796   0.50276   0.00000  Uiso   1.00
Si32   Si    0.34501   0.81050   0.48936   0.00000  Uiso   1.00
Si33   Si    0.29516   0.80246   0.82633   0.00000  Uiso   1.00
Si34   Si    0.48027   0.85818   0.63163   0.00000  Uiso   1.00
Si35   Si    0.68990   0.23434   0.25067   0.00000  Uiso   1.00
Si36   Si    0.80449   0.03715   0.43277   0.00000  Uiso   1.00
Si37   Si    0.85092   0.21683   0.35361   0.00000  Uiso   1.00
Si38   Si    0.84321   0.01684   0.73951   0.00000  Uiso   1.00
Si39   Si    0.59533   0.02947   0.88081   0.00000  Uiso   1.00
Si40   Si    0.86884   0.16517   0.62543   0.00000  Uiso   1.00
Si41   Si    0.81942   0.36780   0.13537   0.00000  Uiso   1.00
Si42   Si    0.64158   0.52903   0.24508   0.00000  Uiso   1.00
Si43   Si    0.79814   0.46756  -0.00120   0.00000  Uiso   1.00
Si44   Si    0.74053   0.45778   0.52618   0.00000  Uiso   1.00
Si45   Si    0.61812   0.42872   0.90466   0.00000  Uiso   1.00
Si46   Si    0.83240   0.49823   0.67618   0.00000  Uiso   1.00
Si47   Si    0.89988   0.67122   0.02485   0.00000  Uiso   1.00
Si48   Si    0.86959   0.82346  -0.04231   0.00000  Uiso   1.00
Si49   Si    0.64485   0.87631   0.54741   0.00000  Uiso   1.00
Si50   Si    0.77520   0.87437   0.36344   0.00000  Uiso   1.00
Si51   Si    0.77137   0.84320   0.67015   0.00000  Uiso   1.00
C52    C     0.17595   0.17751   0.11917   0.00000  Uiso   1.00
C53    C     0.08527   0.99967   0.22089   0.00000  Uiso   1.00
C54    C     0.23677   1.03647   0.12037   0.00000  Uiso   1.00
C55    C     0.01476   0.27379   0.17751   0.00000  Uiso   1.00
C56    C     0.95489   0.10145   0.25861   0.00000  Uiso   1.00
O57    O     0.12460   0.26218   0.29071   0.00000  Uiso   1.00
C58    C     0.15660   0.14537   0.39561   0.00000  Uiso   1.00
C59    C     0.06199   0.11601   0.92170   0.00000  Uiso   1.00
C60    C     0.91353   0.16029   0.91106   0.00000  Uiso   1.00
O61    O     0.05274   0.13930   0.57872   0.00000  Uiso   1.00
C62    C     0.08395   0.05384   0.70351   0.00000  Uiso   1.00
C63    C     0.24619   0.22212   0.62528   0.00000  Uiso   1.00
C64    C     0.10356   0.57145   0.16832   0.00000  Uiso   1.00
C65    C     0.95250   0.50730   0.27852   0.00000  Uiso   1.00
O66    O     0.08402   0.26005   0.47331   0.00000  Uiso   1.00
O67    O     0.23617   0.32478   0.40274   0.00000  Uiso   1.00
O68    O     0.06841   0.44384   0.28298   0.00000  Uiso   1.00
O69    O     0.15681   0.41158   0.40472   0.00000  Uiso   1.00
O70    O     0.04752   0.23269   0.80952   0.00000  Uiso   1.00
O71    O     0.10220   0.22862   0.68607   0.00000  Uiso   1.00
C72    C     0.06237   0.51897   0.99067   0.00000  Uiso   1.00
C73    C    -0.02378   0.57815   0.86067   0.00000  Uiso   1.00
C74    C     0.96091   0.39936   0.87263   0.00000  Uiso   1.00
C75    C     0.10003   0.41682   0.58922   0.00000  Uiso   1.00
O76    O     0.15427   0.37860   0.73194   0.00000  Uiso   1.00
C77    C     0.20175   0.55957   0.67793   0.00000  Uiso   1.00
C78    C     0.08916   0.58086   0.45455   0.00000  Uiso   1.00
O79    O     0.21128   0.57857   0.36297   0.00000  Uiso   1.00
C80    C     0.25992   1.02211   0.44890   0.00000  Uiso   1.00
C81    C     1.04323   0.91105   0.39522   0.00000  Uiso   1.00
C82    C     0.02113   0.72618   0.35891   0.00000  Uiso   1.00
O83    O     0.17803   0.70055   0.33803   0.00000  Uiso   1.00
C84    C     0.23175   0.88001   0.31889   0.00000  Uiso   1.00
C85    C     0.10420   0.75774   0.20956   0.00000  Uiso   1.00
O86    O     0.11788   0.84774   0.50734   0.00000  Uiso   1.00
C87    C     0.11338   0.70378   0.59155   0.00000  Uiso   1.00
C88    C     0.25217   0.89392   0.61834   0.00000  Uiso   1.00
C89    C     0.47017  -0.01356   0.15366   0.00000  Uiso   1.00
C90    C     0.60339   0.98982   0.27988   0.00000  Uiso   1.00
C91    C     0.68639   1.04317   0.13857   0.00000  Uiso   1.00
O92    O     0.28488   0.15211   0.23818   0.00000  Uiso   1.00
O93    O     0.30596   0.28361   0.30478   0.00000  Uiso   1.00
O94    O     0.45471   0.25160   0.30586   0.00000  Uiso   1.00
C95    C     0.43245   0.08770   0.29495   0.00000  Uiso   1.00
C96    C     0.50522   0.17775   0.42981   0.00000  Uiso   1.00
C97    C     0.25784   0.05611   0.87686   0.00000  Uiso   1.00
C98    C     0.45399   0.15563   0.94810   0.00000  Uiso   1.00
C99    C     0.31229   0.20568   0.96797   0.00000  Uiso   1.00
C100   C     0.40915   0.16077   0.63411   0.00000  Uiso   1.00
O101   O     0.46690   0.06297   0.73044   0.00000  Uiso   1.00
C102   C     0.62041   0.21644   0.65118   0.00000  Uiso   1.00
O103   O     0.40328   0.31569   0.18888   0.00000  Uiso   1.00
C104   C     0.56469   0.34303   0.12005   0.00000  Uiso   1.00
C105   C     0.23694   0.41791   0.15028   0.00000  Uiso   1.00
C106   C     0.41684   0.53409   0.22361   0.00000  Uiso   1.00
O107   O     0.25190   0.48668   0.28709   0.00000  Uiso   1.00
O108   O     0.45707   0.41599   0.06504   0.00000  Uiso   1.00
O109   O     0.27122   0.42130   0.51601   0.00000  Uiso   1.00
O110   O     0.28411   0.46537   0.64103   0.00000  Uiso   1.00
O111   O     0.39906   0.23849   0.83127   0.00000  Uiso   1.00
O112   O     0.51986   0.23251   0.75648   0.00000  Uiso   1.00
C113   C     0.24377   0.29605   0.79575   0.00000  Uiso   1.00
C114   C     0.19459   0.38148   0.95606   0.00000  Uiso   1.00
O115   O     0.39382   0.44989   0.94288   0.00000  Uiso   1.00
C116   C     0.31805   0.53873   0.85138   0.00000  Uiso   1.00
C117   C     0.35138   0.56602   1.00421   0.00000  Uiso   1.00
O118   O     0.41641   0.43985   0.61634   0.00000  Uiso   1.00
O119   O     0.46934   0.35097   0.71762   0.00000  Uiso   1.00
C120   C     0.46079   0.48694   0.75836   0.00000  Uiso   1.00
O121   O     0.30487   0.60610   0.17502   0.00000  Uiso   1.00
C122   C     0.58837   0.58211   0.00564   0.00000  Uiso   1.00
C123   C     0.48986   0.76334   0.14186   0.00000  Uiso   1.00
C124   C     0.30752   0.74986   0.08359   0.00000  Uiso   1.00
C125   C     0.36669   0.75112   0.25628   0.00000  Uiso   1.00
O126   O     0.42600   0.59615   0.55720   0.00000  Uiso   1.00
C127   C     0.59062   0.62922   0.50062   0.00000  Uiso   1.00
C128   C     0.43492   0.64497   0.41759   0.00000  Uiso   1.00
O129   O     0.29534   0.71655   0.45254   0.00000  Uiso   1.00
C130   C     0.44206   0.90128   0.43055   0.00000  Uiso   1.00
O131   O     0.25943   0.82854   0.49356   0.00000  Uiso   1.00
C132   C     0.20644   0.71319   0.76923   0.00000  Uiso   1.00
C133   C     0.37163   0.76349   0.87950   0.00000  Uiso   1.00
O134   O     0.36239   0.89461   0.77203   0.00000  Uiso   1.00
C135   C     0.22192   0.81567   0.88633   0.00000  Uiso   1.00
O136   O     0.38852   0.81027   0.57167   0.00000  Uiso   1.00
C137   C     0.46127   0.77145   0.70175   0.00000  Uiso   1.00
O138   O     0.48207   0.94047   0.66939   0.00000  Uiso   1.00
O139   O     0.63003   0.14832   0.20467   0.00000  Uiso   1.00
O140   O     0.62070   0.24391   0.30109   0.00000  Uiso   1.00
O141   O     0.91789   0.09008   0.47363   0.00000  Uiso   1.00
O142   O     0.95288   0.24390   0.32318   0.00000  Uiso   1.00
O143   O     0.78224   0.23202   0.29295   0.00000  Uiso   1.00
O144   O     0.79062   0.11578   0.38971   0.00000  Uiso   1.00
C145   C     0.87703   0.28977   0.42972   0.00000  Uiso   1.00
O146   O     0.91313   0.05450   0.80899   0.00000  Uiso   1.00
C147   C     0.71474   0.97439   0.76012   0.00000  Uiso   1.00
O148   O     0.55165  -0.01591   0.80599   0.00000  Uiso   1.00
C149   C     0.66815  -0.01578   0.93109   0.00000  Uiso   1.00
C150   C     0.67517   0.15227   0.85876   0.00000  Uiso   1.00
C151   C     0.49579  -0.00312   0.94038   0.00000  Uiso   1.00
O152   O     0.93781   0.20072   0.56220   0.00000  Uiso   1.00
C153   C     0.73994   0.11928   0.58930   0.00000  Uiso   1.00
O154   O     0.87762   0.08978   0.67288   0.00000  Uiso   1.00
C155   C     0.88895   0.24982   0.68931   0.00000  Uiso   1.00
O156   O     0.73867   0.32246   0.19566   0.00000  Uiso   1.00
C157   C     0.78436   0.27480   0.07847   0.00000  Uiso   1.00
O158   O     0.92668   0.40198   0.17121   0.00000  Uiso   1.00
O159   O     0.56414   0.48172   0.18144   0.00000  Uiso   1.00
C160   C     0.72061   0.48392   0.26081   0.00000  Uiso   1.00
C161   C     0.57222   0.49556   0.33306   0.00000  Uiso   1.00
O162   O     0.86223   0.44376   0.95734   0.00000  Uiso   1.00
O163   O     0.80150   0.43675   0.08228   0.00000  Uiso   1.00
C164   C     0.60527   0.40566   0.50335   0.00000  Uiso   1.00
C165   C     0.78620   0.39160   0.49948   0.00000  Uiso   1.00
C166   C     0.80616   0.57366   0.48076   0.00000  Uiso   1.00
C167   C     0.61293   0.52382   0.66298   0.00000  Uiso   1.00
O168   O     0.58275   0.36585   0.83729   0.00000  Uiso   1.00
O169   O     0.69156   0.41651   0.96393   0.00000  Uiso   1.00
C170   C     0.68539   0.54914   0.86357   0.00000  Uiso   1.00
O171   O     0.53257   0.41553   0.94423   0.00000  Uiso   1.00
C172   C     0.93338   0.49473   0.64763   0.00000  Uiso   1.00
O173   O     0.75597   0.46780   0.61005   0.00000  Uiso   1.00
C174   C     0.77530   0.41131   0.75494   0.00000  Uiso   1.00
C175   C     0.87466   0.62008   0.69127   0.00000  Uiso   1.00
C176   C     0.71389   0.65373   0.22572   0.00000  Uiso   1.00
C177   C     0.86919   0.64246   0.11887   0.00000  Uiso   1.00
O178   O     0.84764   0.57879  -0.01422   0.00000  Uiso   1.00
C179   C     1.03369   0.74241   0.02367   0.00000  Uiso   1.00
C180   C     0.92181   0.90059   1.03629   0.00000  Uiso   1.00
O181   O     0.85660   0.72778  -0.00953   0.00000  Uiso   1.00
C182   C     0.74969   0.80308  -0.07511   0.00000  Uiso   1.00
C183   C     0.96418   0.88162   0.88511   0.00000  Uiso   1.00
O184   O     0.56329   0.77944   0.51305   0.00000  Uiso   1.00
O185   O     0.70858   0.96233   0.48450   0.00000  Uiso   1.00
O186   O     0.58604   0.89985   0.59413   0.00000  Uiso   1.00
C187   C     0.84064   0.87905   0.28431   0.00000  Uiso   1.00
C188   C     0.65103   0.81435   0.33583   0.00000  Uiso   1.00
C189   C     0.80802   0.82437   0.44890   0.00000  Uiso   1.00
O190   O     0.80526   0.97627   0.37537   0.00000  Uiso   1.00
C191   C     1.09826   0.98856   0.54607   0.00000  Uiso   1.00
C192   C     0.84501   0.80101   0.65280   0.00000  Uiso   1.00
O193   O     0.72233   0.86333   0.59631   0.00000  Uiso   1.00
C194   C     0.67539   0.75707   0.72912   0.00000  Uiso   1.00
O195   O     0.83821   0.92990   0.71360   0.00000  Uiso   1.00
H196   H     0.23308   0.21805   0.07672   0.00000  Uiso   1.00
H197   H     0.17257   0.21943   0.15762   0.00000  Uiso   1.00
H198   H     0.10073   0.13424   0.09076   0.00000  Uiso   1.00
H199   H     0.01532   0.97560   0.19012   0.00000  Uiso   1.00
H200   H     0.08397   1.03325   0.26300   0.00000  Uiso   1.00
H201   H     0.08686   0.93932   0.23713   0.00000  Uiso   1.00
H202   H     0.18183   0.99695   0.07465   0.00000  Uiso   1.00
H203   H     0.25002   0.98648   0.15477   0.00000  Uiso   1.00
H204   H     0.30568   1.08987   0.09673   0.00000  Uiso   1.00
H205   H     0.05284   0.25997   0.14437   0.00000  Uiso   1.00
H206   H     0.05059   0.34481   0.18046   0.00000  Uiso   1.00
H207   H    -0.06385   0.24759   0.16118   0.00000  Uiso   1.00
H208   H     0.96863   0.07277   0.31048   0.00000  Uiso   1.00
H209   H     0.99151   0.09472   0.21289   0.00000  Uiso   1.00
H210   H     0.87585   0.06943   0.24937   0.00000  Uiso   1.00
H211   H     0.07582   0.10682   0.40624   0.00000  Uiso   1.00
H212   H     0.19512   0.15677   0.44494   0.00000  Uiso   1.00
H213   H     0.16450   0.10110   0.36546   0.00000  Uiso   1.00
H214   H     0.10668   0.10673   0.89376   0.00000  Uiso   1.00
H215   H     0.00686   0.05446   0.95436   0.00000  Uiso   1.00
H216   H     0.09493   0.16724   0.95875   0.00000  Uiso   1.00
H217   H     0.88256   0.10606   0.95835   0.00000  Uiso   1.00
H218   H     0.84537   0.15174   0.87776   0.00000  Uiso   1.00
H219   H     0.96831   0.23004   0.93447   0.00000  Uiso   1.00
H220   H     0.06533   0.05410   0.75903   0.00000  Uiso   1.00
H221   H     0.14558   0.04333   0.70389   0.00000  Uiso   1.00
H222   H     0.01860  -0.00844   0.68676   0.00000  Uiso   1.00
H223   H     0.28509   0.22175   0.67657   0.00000  Uiso   1.00
H224   H     0.27577   0.29479   0.60387   0.00000  Uiso   1.00
H225   H     0.24849   0.18665   0.57979   0.00000  Uiso   1.00
H226   H     0.14104   0.55333   0.13459   0.00000  Uiso   1.00
H227   H     0.15816   0.62279   0.20372   0.00000  Uiso   1.00
H228   H     0.05536   0.59052   0.13333   0.00000  Uiso   1.00
H229   H     0.94629   0.55928   0.24858   0.00000  Uiso   1.00
H230   H     0.99156   0.53291   0.33069   0.00000  Uiso   1.00
H231   H     0.87549   0.44518   0.28628   0.00000  Uiso   1.00
H232   H     0.12989   0.54138   0.96244   0.00000  Uiso   1.00
H233   H     0.04635   0.46995   1.03652   0.00000  Uiso   1.00
H234   H     0.07485   0.58364   1.01047   0.00000  Uiso   1.00
H235   H    -0.00353   0.57444   0.80623   0.00000  Uiso   1.00
H236   H     0.03394   0.64089   0.88337   0.00000  Uiso   1.00
H237   H    -0.09589   0.56976   0.85845   0.00000  Uiso   1.00
H238   H     0.94026   0.40965   0.81697   0.00000  Uiso   1.00
H239   H     0.91151   0.33156   0.89980   0.00000  Uiso   1.00
H240   H     1.03409   0.40965   0.86940   0.00000  Uiso   1.00
H241   H     0.08591   0.34983   0.57814   0.00000  Uiso   1.00
H242   H     0.12401   0.46841   0.54823   0.00000  Uiso   1.00
H243   H     0.02441   0.39738   0.59963   0.00000  Uiso   1.00
H244   H     0.24060   0.57604   0.72859   0.00000  Uiso   1.00
H245   H     0.13508   0.55712   0.68046   0.00000  Uiso   1.00
H246   H     0.24875   0.60835   0.63332   0.00000  Uiso   1.00
H247   H     0.04178   0.60791   0.44157   0.00000  Uiso   1.00
H248   H     0.09892   0.57366   0.51031   0.00000  Uiso   1.00
H249   H     0.04123   0.50886   0.43405   0.00000  Uiso   1.00
H250   H     0.26190   1.05099   0.39526   0.00000  Uiso   1.00
H251   H     0.29916   0.98880   0.45058   0.00000  Uiso   1.00
H252   H     0.29728   1.07705   0.48806   0.00000  Uiso   1.00
H253   H     1.06381   0.89312   0.35144   0.00000  Uiso   1.00
H254   H     1.02823   0.96475   0.38081   0.00000  Uiso   1.00
H255   H     0.97335   0.84530   0.41463   0.00000  Uiso   1.00
H256   H    -0.03153   0.65511   0.35108   0.00000  Uiso   1.00
H257   H    -0.01343   0.76273   0.33075   0.00000  Uiso   1.00
H258   H     0.03074   0.73878   0.41659   0.00000  Uiso   1.00
H259   H     0.25002   0.88479   0.37820   0.00000  Uiso   1.00
H260   H     0.20668   0.92557   0.30288   0.00000  Uiso   1.00
H261   H     0.29022   0.89854   0.28084   0.00000  Uiso   1.00
H262   H     0.04376   0.68866   0.20320   0.00000  Uiso   1.00
H263   H     0.16102   0.77275   0.17184   0.00000  Uiso   1.00
H264   H     0.07612   0.80634   0.18953   0.00000  Uiso   1.00
H265   H     0.15825   0.67681   0.60014   0.00000  Uiso   1.00
H266   H     0.05799   0.66676   0.54664   0.00000  Uiso   1.00
H267   H     0.08124   0.70106   0.64118   0.00000  Uiso   1.00
H268   H     0.30151   0.87557   0.64809   0.00000  Uiso   1.00
H269   H     0.19535   0.88720   0.65059   0.00000  Uiso   1.00
H270   H     0.29816   0.96306   0.59688   0.00000  Uiso   1.00
H271   H     0.46249   0.04193   0.12431   0.00000  Uiso   1.00
H272   H     0.41504  -0.03895   0.19659   0.00000  Uiso   1.00
H273   H     0.45130  -0.06826   0.11834   0.00000  Uiso   1.00
H274   H     0.58627   1.00746   0.32635   0.00000  Uiso   1.00
H275   H     0.67876   1.01363   0.29509   0.00000  Uiso   1.00
H276   H     0.56445   0.91461   0.26917   0.00000  Uiso   1.00
H277   H     0.76562   1.08683   0.15688   0.00000  Uiso   1.00
H278   H     0.67941   1.07942   0.08600   0.00000  Uiso   1.00
H279   H     0.66819   0.98050   0.11819   0.00000  Uiso   1.00
H280   H     0.46054   0.04425   0.31343   0.00000  Uiso   1.00
H281   H     0.43794   0.09942   0.23592   0.00000  Uiso   1.00
H282   H     0.35264   0.05475   0.30767   0.00000  Uiso   1.00
H283   H     0.45044   0.18606   0.44524   0.00000  Uiso   1.00
H284   H     0.58084   0.23407   0.45427   0.00000  Uiso   1.00
H285   H     0.48730   0.11083   0.44852   0.00000  Uiso   1.00
H286   H     0.29174   0.03719   0.84215   0.00000  Uiso   1.00
H287   H     0.19033   0.05138   0.85179   0.00000  Uiso   1.00
H288   H     0.23871   0.00461   0.92562   0.00000  Uiso   1.00
H289   H     0.49775   0.15568   0.90439   0.00000  Uiso   1.00
H290   H     0.43677   0.10039   0.99262   0.00000  Uiso   1.00
H291   H     0.50693   0.21853   0.97879   0.00000  Uiso   1.00
H292   H     0.27786   0.24030   0.93292   0.00000  Uiso   1.00
H293   H     0.36828   0.24946   1.00462   0.00000  Uiso   1.00
H294   H     0.25395   0.14613   0.99592   0.00000  Uiso   1.00
H295   H     0.33757   0.12412   0.66257   0.00000  Uiso   1.00
H296   H     0.39985   0.11930   0.59205   0.00000  Uiso   1.00
H297   H     0.43195   0.22993   0.61229   0.00000  Uiso   1.00
H298   H     0.67242   0.20628   0.68793   0.00000  Uiso   1.00
H299   H     0.65867   0.29301   0.63797   0.00000  Uiso   1.00
H300   H     0.60178   0.18012   0.60203   0.00000  Uiso   1.00
H301   H     0.58154   0.30643   0.16386   0.00000  Uiso   1.00
H302   H     0.62778   0.39483   0.09552   0.00000  Uiso   1.00
H303   H     0.52715   0.29728   0.07782   0.00000  Uiso   1.00
H304   H     0.18265   0.42197   0.11316   0.00000  Uiso   1.00
H305   H     0.20732   0.34957   0.18246   0.00000  Uiso   1.00
H306   H     0.29448   0.42337   0.11943   0.00000  Uiso   1.00
H307   H     0.40073   0.46950   0.24676   0.00000  Uiso   1.00
H308   H     0.46851   0.58670   0.26043   0.00000  Uiso   1.00
H309   H     0.44847   0.54320   0.17054   0.00000  Uiso   1.00
H310   H     0.30363   0.32194   0.75548   0.00000  Uiso   1.00
H311   H     0.21911   0.22873   0.81824   0.00000  Uiso   1.00
H312   H     0.27138   0.33593   0.84284   0.00000  Uiso   1.00
H313   H     0.15101   0.39750   0.99042   0.00000  Uiso   1.00
H314   H     0.20287   0.33243   0.98907   0.00000  Uiso   1.00
H315   H     0.15487   0.35208   0.90324   0.00000  Uiso   1.00
H316   H     0.39355   0.58872   0.84219   0.00000  Uiso   1.00
H317   H     0.28178   0.57352   0.85816   0.00000  Uiso   1.00
H318   H     0.28404   0.49227   0.81239   0.00000  Uiso   1.00
H319   H     0.40751   0.63413   0.98335   0.00000  Uiso   1.00
H320   H     0.39025   0.55602   1.05285   0.00000  Uiso   1.00
H321   H     0.28692   0.56346   1.01827   0.00000  Uiso   1.00
H322   H     0.38310   0.46894   0.74645   0.00000  Uiso   1.00
H323   H     0.51124   0.56143   0.76141   0.00000  Uiso   1.00
H324   H     0.47482   0.45359   0.80899   0.00000  Uiso   1.00
H325   H     0.65993   0.59170   0.02535   0.00000  Uiso   1.00
H326   H     0.56308   0.60313   0.04416   0.00000  Uiso   1.00
H327   H     0.59534   0.62095  -0.04433   0.00000  Uiso   1.00
H328   H     0.52954   0.75104   0.18990   0.00000  Uiso   1.00
H329   H     0.53027   0.84021   0.12401   0.00000  Uiso   1.00
H330   H     0.49022   0.72471   0.09867   0.00000  Uiso   1.00
H331   H     0.37491   0.80117   0.05258   0.00000  Uiso   1.00
H332   H     0.27733   0.79105   0.09698   0.00000  Uiso   1.00
H333   H     0.26450   0.69671   0.04904   0.00000  Uiso   1.00
H334   H     0.30563   0.68844   0.28276   0.00000  Uiso   1.00
H335   H     0.35429   0.80894   0.25355   0.00000  Uiso   1.00
H336   H     0.42861   0.76099   0.28577   0.00000  Uiso   1.00
H337   H     0.61484   0.63665   0.44432   0.00000  Uiso   1.00
H338   H     0.55395   0.55391   0.51026   0.00000  Uiso   1.00
H339   H     0.65635   0.66573   0.53928   0.00000  Uiso   1.00
H340   H     0.42296   0.70029   0.39338   0.00000  Uiso   1.00
H341   H     0.36151   0.58082   0.42790   0.00000  Uiso   1.00
H342   H     0.46306   0.62417   0.37913   0.00000  Uiso   1.00
H343   H     0.51416   0.92280   0.45764   0.00000  Uiso   1.00
H344   H     0.42725   0.95547   0.41778   0.00000  Uiso   1.00
H345   H     0.43557   0.86775   0.38165   0.00000  Uiso   1.00
H346   H     0.17338   0.64777   0.80136   0.00000  Uiso   1.00
H347   H     0.23123   0.70583   0.71870   0.00000  Uiso   1.00
H348   H     0.14484   0.71941   0.75592   0.00000  Uiso   1.00
H349   H     0.33954   0.72551   0.92865   0.00000  Uiso   1.00
H350   H     0.44832   0.82897   0.89050   0.00000  Uiso   1.00
H351   H     0.37403   0.71739   0.84368   0.00000  Uiso   1.00
H352   H     0.19291   0.75981   0.92938   0.00000  Uiso   1.00
H353   H     0.16230   0.82388   0.85676   0.00000  Uiso   1.00
H354   H     0.27417   0.88362   0.90626   0.00000  Uiso   1.00
H355   H     0.51023   0.79718   0.74877   0.00000  Uiso   1.00
H356   H     0.46707   0.71663   0.68197   0.00000  Uiso   1.00
H357   H     0.38866   0.74104   0.72124   0.00000  Uiso   1.00
H358   H     0.94155   0.30470   0.45969   0.00000  Uiso   1.00
H359   H     0.81627   0.24638   0.46527   0.00000  Uiso   1.00
H360   H     0.87615   0.35040   0.40567   0.00000  Uiso   1.00
H361   H     0.71020   1.02887   0.77589   0.00000  Uiso   1.00
H362   H     0.68844   0.93046   0.80891   0.00000  Uiso   1.00
H363   H     0.65992   0.94395   0.71582   0.00000  Uiso   1.00
H364   H     0.67862  -0.00090   0.98670   0.00000  Uiso   1.00
H365   H     0.73998   0.00591   0.91061   0.00000  Uiso   1.00
H366   H     0.62412  -0.09193   0.93023   0.00000  Uiso   1.00
H367   H     0.62493   0.17453   0.83798   0.00000  Uiso   1.00
H368   H     0.72682   0.16931   0.81649   0.00000  Uiso   1.00
H369   H     0.71483   0.19510   0.90500   0.00000  Uiso   1.00
H370   H     0.46685  -0.07143   0.96110   0.00000  Uiso   1.00
H371   H     0.44508   0.01196   0.91052   0.00000  Uiso   1.00
H372   H     0.52106   0.03731   0.98654   0.00000  Uiso   1.00
H373   H     0.68687   0.09025   0.63161   0.00000  Uiso   1.00
H374   H     0.71731   0.06746   0.55109   0.00000  Uiso   1.00
H375   H     0.73320   0.17340   0.55848   0.00000  Uiso   1.00
H376   H     0.84553   0.27960   0.67286   0.00000  Uiso   1.00
H377   H     0.96552   0.30189   0.70179   0.00000  Uiso   1.00
H378   H     0.85191   0.20079   0.73778   0.00000  Uiso   1.00
H379   H     0.79925   0.22735   0.11072   0.00000  Uiso   1.00
H380   H     0.81197   0.29630   0.02184   0.00000  Uiso   1.00
H381   H     0.70623   0.23864   0.07649   0.00000  Uiso   1.00
H382   H     0.78918   0.53012   0.28964   0.00000  Uiso   1.00
H383   H     0.73192   0.48284   0.20225   0.00000  Uiso   1.00
H384   H     0.68524   0.41574   0.29146   0.00000  Uiso   1.00
H385   H     0.52466   0.41971   0.33972   0.00000  Uiso   1.00
H386   H     0.52943   0.52750   0.32894   0.00000  Uiso   1.00
H387   H     0.63154   0.52654   0.37375   0.00000  Uiso   1.00
H388   H     0.59101   0.37947   0.44770   0.00000  Uiso   1.00
H389   H     0.58179   0.45185   0.50549   0.00000  Uiso   1.00
H390   H     0.55935   0.34593   0.53640   0.00000  Uiso   1.00
H391   H     0.85802   0.44348   0.48293   0.00000  Uiso   1.00
H392   H     0.74471   0.34851   0.45026   0.00000  Uiso   1.00
H393   H     0.80183   0.35443   0.54654   0.00000  Uiso   1.00
H394   H     0.81085   0.57336   0.42386   0.00000  Uiso   1.00
H395   H     0.87520   0.61441   0.51018   0.00000  Uiso   1.00
H396   H     0.76400   0.60088   0.49330   0.00000  Uiso   1.00
H397   H     0.63285   0.59549   0.64964   0.00000  Uiso   1.00
H398   H     0.62536   0.49835   0.61590   0.00000  Uiso   1.00
H399   H     0.65092   0.51489   0.71240   0.00000  Uiso   1.00
H400   H     0.74339   0.54861   0.83478   0.00000  Uiso   1.00
H401   H     0.72176   0.59731   0.90674   0.00000  Uiso   1.00
H402   H     0.64467   0.56935   0.82591   0.00000  Uiso   1.00
H403   H     0.95464   0.53249   0.59485   0.00000  Uiso   1.00
H404   H     0.90776   0.42633   0.64439   0.00000  Uiso   1.00
H405   H     0.99208   0.51914   0.68912   0.00000  Uiso   1.00
H406   H     0.79670   0.36087   0.75695   0.00000  Uiso   1.00
H407   H     0.69419   0.37693   0.73998   0.00000  Uiso   1.00
H408   H     0.79507   0.44174   0.80879   0.00000  Uiso   1.00
H409   H     0.88228   0.66238   0.64341   0.00000  Uiso   1.00
H410   H     0.94714   0.65051   0.72149   0.00000  Uiso   1.00
H411   H     0.83022   0.62593   0.72822   0.00000  Uiso   1.00
H412   H     0.70372   0.67625   0.17022   0.00000  Uiso   1.00
H413   H     0.78984   0.67860   0.24782   0.00000  Uiso   1.00
H414   H     0.68632   0.68390   0.26114   0.00000  Uiso   1.00
H415   H     0.90209   0.70254   0.14874   0.00000  Uiso   1.00
H416   H     0.88357   0.59322   0.15068   0.00000  Uiso   1.00
H417   H     0.78934   0.61292   0.11593   0.00000  Uiso   1.00
H418   H     1.05731   0.79936   0.06061   0.00000  Uiso   1.00
H419   H     1.06398   0.77983  -0.03093   0.00000  Uiso   1.00
H420   H     1.05559   0.69954   0.04807   0.00000  Uiso   1.00
H421   H     0.90811   0.95586   1.03121   0.00000  Uiso   1.00
H422   H     1.00546   0.93622   1.04177   0.00000  Uiso   1.00
H423   H     0.89067   0.85897   1.08822   0.00000  Uiso   1.00
H424   H     0.70192   0.78560  -0.02835   0.00000  Uiso   1.00
H425   H     0.71464   0.74952  -0.10945   0.00000  Uiso   1.00
H426   H     0.75907   0.86109  -0.10942   0.00000  Uiso   1.00
H427   H     0.96808   0.94668   0.86523   0.00000  Uiso   1.00
H428   H     0.93703   0.83578   0.84162   0.00000  Uiso   1.00
H429   H     1.03293   0.89668   0.91550   0.00000  Uiso   1.00
H430   H     0.91598   0.93372   0.27612   0.00000  Uiso   1.00
H431   H     0.79038   0.87274   0.24319   0.00000  Uiso   1.00
H432   H     0.84516   0.82110   0.29201   0.00000  Uiso   1.00
H433   H     0.62857   0.74358   0.34164   0.00000  Uiso   1.00
H434   H     0.63973   0.83703   0.27461   0.00000  Uiso   1.00
H435   H     0.61201   0.82886   0.37610   0.00000  Uiso   1.00
H436   H     0.80244   0.76094   0.44413   0.00000  Uiso   1.00
H437   H     0.75372   0.80842   0.48686   0.00000  Uiso   1.00
H438   H     0.87633   0.87780   0.47560   0.00000  Uiso   1.00
H439   H     1.05137   1.01164   0.51977   0.00000  Uiso   1.00
H440   H     1.17133   1.03802   0.56520   0.00000  Uiso   1.00
H441   H     1.05968   0.93322   0.58993   0.00000  Uiso   1.00
H442   H     0.89091   0.80793   0.70166   0.00000  Uiso   1.00
H443   H     0.88971   0.83953   0.60711   0.00000  Uiso   1.00
H444   H     0.79036   0.72691   0.64032   0.00000  Uiso   1.00
H445   H     0.71200   0.73330   0.76508   0.00000  Uiso   1.00
H446   H     0.60865   0.70081   0.69746   0.00000  Uiso   1.00
H447   H     0.65532   0.78988   0.76480   0.00000  Uiso   1.00
loop_
_geom_bond_atom_site_label_1
_geom_bond_atom_site_label_2
_geom_bond_distance
_geom_bond_site_symmetry_2
_ccdc_geom_bond_type
Si1    C52     1.915   .     S
Si1    O92     1.644   .     S
Si1    C53     1.908   1_545 S
Si1    C54     1.861   1_545 S
Si2    C55     1.832   .     S
Si2    O57     1.609   .     S
Si2    C56     1.878   1_455 S
Si2    O142    1.628   1_455 S
Si3    O61     1.628   .     S
Si3    O66     1.618   .     S
Si3    O141    1.637   1_455 S
Si3    O152    1.585   1_455 S
Si4    O57     1.596   .     S
Si4    C58     1.877   .     S
Si4    O67     1.571   .     S
Si4    O93     1.652   .     S
Si5    C59     1.866   .     S
Si5    O70     1.590   .     S
Si5    C60     1.771   1_455 S
Si5    O146    1.635   1_455 S
Si6    O61     1.532   .     S
Si6    C62     1.883   .     S
Si6    C63     1.831   .     S
Si6    O71     1.581   .     S
Si7    C64     1.817   .     S
Si7    O68     1.572   .     S
Si7    C65     1.836   1_455 S
Si7    O158    1.638   1_455 S
Si8    O66     1.645   .     S
Si8    O67     1.572   .     S
Si8    O69     1.562   .     S
Si8    O109    1.675   .     S
Si9    O68     1.652   .     S
Si9    O69     1.618   .     S
Si9    O79     1.628   .     S
Si9    O107    1.628   .     S
Si10   O70     1.568   .     S
Si10   O71     1.588   .     S
Si10   O76     1.548   .     S
Si10   C113    1.785   .     S
Si11   C72     1.864   .     S
Si11   C73     1.808   .     S
Si11   C74     1.828   1_455 S
Si11   O162    1.559   1_455 S
Si12   C75     1.788   .     S
Si12   O76     1.564   .     S
Si12   C77     1.862   .     S
Si12   O110    1.580   .     S
Si13   C78     1.805   .     S
Si13   O79     1.599   .     S
Si13   O83     1.590   .     S
Si13   O129    1.651   .     S
Si14   C80     1.904   .     S
Si14   O86     1.550   .     S
Si14   C81     1.885   1_455 S
Si14   C191    1.896   1_455 S
Si15   C82     1.868   .     S
Si15   O83     1.600   .     S
Si15   C84     1.846   .     S
Si15   C85     1.913   .     S
Si16   O86     1.584   .     S
Si16   C87     1.792   .     S
Si16   C88     1.784   .     S
Si16   O131    1.610   .     S
Si17   C89     1.849   .     S
Si17   O139    1.619   .     S
Si17   C90     1.828   1_545 S
Si17   C91     1.886   1_545 S
Si18   O92     1.580   .     S
Si18   O93     1.638   .     S
Si18   O94     1.640   .     S
Si18   O103    1.609   .     S
Si19   O94     1.613   .     S
Si19   C95     1.814   .     S
Si19   C96     1.868   .     S
Si19   O140    1.656   .     S
Si20   O101    1.625   .     S
Si20   O148    1.609   .     S
Si20   O134    1.639   1_545 S
Si20   O138    1.619   1_545 S
Si21   C97     1.827   .     S
Si21   C98     1.819   .     S
Si21   C99     1.854   .     S
Si21   O111    1.625   .     S
Si22   C100    1.867   .     S
Si22   O101    1.618   .     S
Si22   C102    1.833   .     S
Si22   O112    1.608   .     S
Si23   O103    1.593   .     S
Si23   C104    1.926   .     S
Si23   O108    1.567   .     S
Si23   O159    1.587   .     S
Si24   C105    1.912   .     S
Si24   C106    1.773   .     S
Si24   O107    1.602   .     S
Si24   O121    1.580   .     S
Si25   O108    1.589   .     S
Si25   C122    1.930   .     S
Si25   O115    1.602   1_554 S
Si25   O171    1.598   1_554 S
Si26   O109    1.668   .     S
Si26   O110    1.555   .     S
Si26   O118    1.642   .     S
Si26   O126    1.716   .     S
Si27   O111    1.586   .     S
Si27   O112    1.589   .     S
Si27   O119    1.628   .     S
Si27   O168    1.616   .     S
Si28   C114    1.871   .     S
Si28   O115    1.614   .     S
Si28   C116    1.806   .     S
Si28   C117    1.828   .     S
Si29   O118    1.597   .     S
Si29   O119    1.585   .     S
Si29   C120    1.806   .     S
Si29   C167    1.826   .     S
Si30   O121    1.613   .     S
Si30   C123    1.883   .     S
Si30   C124    1.866   .     S
Si30   C125    1.876   .     S
Si31   O126    1.596   .     S
Si31   C127    1.838   .     S
Si31   C128    1.823   .     S
Si31   O184    1.680   .     S
Si32   O129    1.601   .     S
Si32   C130    1.862   .     S
Si32   O131    1.608   .     S
Si32   O136    1.628   .     S
Si33   C132    1.813   .     S
Si33   C133    1.879   .     S
Si33   O134    1.666   .     S
Si33   C135    1.852   .     S
Si34   O136    1.640   .     S
Si34   C137    1.804   .     S
Si34   O138    1.678   .     S
Si34   O186    1.665   .     S
Si35   O139    1.583   .     S
Si35   O140    1.641   .     S
Si35   O143    1.644   .     S
Si35   O156    1.598   .     S
Si36   O141    1.688   .     S
Si36   O144    1.633   .     S
Si36   O185    1.702   1_545 S
Si36   O190    1.618   1_545 S
Si37   O142    1.613   .     S
Si37   O143    1.613   .     S
Si37   O144    1.592   .     S
Si37   C145    1.895   .     S
Si38   O146    1.579   .     S
Si38   O154    1.584   .     S
Si38   C147    1.870   1_545 S
Si38   O195    1.624   1_545 S
Si39   O148    1.596   .     S
Si39   C149    1.886   .     S
Si39   C150    1.835   .     S
Si39   C151    1.857   .     S
Si40   O152    1.553   .     S
Si40   C153    1.868   .     S
Si40   O154    1.575   .     S
Si40   C155    1.895   .     S
Si41   O156    1.617   .     S
Si41   C157    1.850   .     S
Si41   O158    1.600   .     S
Si41   O163    1.611   .     S
Si42   O159    1.572   .     S
Si42   C160    1.838   .     S
Si42   C161    1.951   .     S
Si42   C176    1.848   .     S
Si43   O163    1.601   .     S
Si43   O178    1.659   .     S
Si43   O162    1.620   1_554 S
Si43   O169    1.561   1_554 S
Si44   C164    1.887   .     S
Si44   C165    1.833   .     S
Si44   C166    1.852   .     S
Si44   O173    1.583   .     S
Si45   O168    1.625   .     S
Si45   O169    1.629   .     S
Si45   C170    1.883   .     S
Si45   O171    1.547   .     S
Si46   C172    1.825   .     S
Si46   O173    1.571   .     S
Si46   C174    1.896   .     S
Si46   C175    1.913   .     S
Si47   C177    1.824   .     S
Si47   O178    1.597   .     S
Si47   C179    1.828   .     S
Si47   O181    1.560   .     S
Si48   O181    1.631   .     S
Si48   C182    1.832   .     S
Si48   C180    1.922   1_554 S
Si48   C183    1.920   1_554 S
Si49   O184    1.639   .     S
Si49   O185    1.699   .     S
Si49   O186    1.607   .     S
Si49   O193    1.584   .     S
Si50   C187    1.894   .     S
Si50   C188    1.744   .     S
Si50   C189    1.905   .     S
Si50   O190    1.622   .     S
Si51   C192    1.801   .     S
Si51   O193    1.624   .     S
Si51   C194    1.831   .     S
Si51   O195    1.571   .     S
C52    H196    1.145   .     S
C52    H197    1.121   .     S
C52    H198    1.140   .     S
C53    H199    1.095   .     S
C53    H200    1.053   .     S
C53    H201    1.086   .     S
C53    Si1     1.908   1_565 S
C54    H202    1.147   .     S
C54    H203    1.133   .     S
C54    H204    1.093   .     S
C54    Si1     1.861   1_565 S
C55    H205    1.061   .     S
C55    H206    1.059   .     S
C55    H207    1.118   .     S
C56    H208    1.101   .     S
C56    H209    1.152   .     S
C56    H210    1.090   .     S
C56    Si2     1.878   1_655 S
C58    H211    1.133   .     S
C58    H212    1.035   .     S
C58    H213    1.088   .     S
C59    H214    1.036   .     S
C59    H215    1.119   .     S
C59    H216    1.061   .     S
C60    H217    1.150   .     S
C60    H218    1.156   .     S
C60    H219    1.159   .     S
C60    Si5     1.771   1_655 S
C62    H220    1.119   .     S
C62    H221    1.119   .     S
C62    H222    1.080   .     S
C63    H223    1.095   .     S
C63    H224    1.130   .     S
C63    H225    1.135   .     S
C64    H226    1.109   .     S
C64    H227    1.088   .     S
C64    H228    1.135   .     S
C65    H229    1.065   .     S
C65    H230    1.106   .     S
C65    H231    1.136   .     S
C65    Si7     1.836   1_655 S
C72    H232    1.120   .     S
C72    H233    1.086   .     S
C72    H234    1.147   .     S
C73    H235    1.129   .     S
C73    H236    1.084   .     S
C73    H237    1.100   .     S
C74    H238    1.087   .     S
C74    H239    1.107   .     S
C74    H240    1.114   .     S
C74    Si11    1.828   1_655 S
C75    H241    1.116   .     S
C75    H242    1.039   .     S
C75    H243    1.120   .     S
C77    H244    1.059   .     S
C77    H245    1.072   .     S
C77    H246    1.129   .     S
C78    H247    1.106   .     S
C78    H248    1.044   .     S
C78    H249    1.155   .     S
C80    H250    1.068   .     S
C80    H251    1.079   .     S
C80    H252    1.130   .     S
C81    H253    1.064   .     S
C81    H254    1.101   .     S
C81    H255    1.147   .     S
C81    Si14    1.885   1_655 S
C82    H256    1.080   .     S
C82    H257    1.125   .     S
C82    H258    1.109   .     S
C84    H259    1.122   .     S
C84    H260    1.087   .     S
C84    H261    1.132   .     S
C85    H262    1.078   .     S
C85    H263    1.124   .     S
C85    H264    1.185   .     S
C87    H265    1.063   .     S
C87    H266    1.127   .     S
C87    H267    1.103   .     S
C88    H268    1.100   .     S
C88    H269    1.109   .     S
C88    H270    1.075   .     S
C89    H271    1.126   .     S
C89    H272    1.137   .     S
C89    H273    1.118   .     S
C90    H274    1.074   .     S
C90    H275    1.075   .     S
C90    H276    1.147   .     S
C90    Si17    1.828   1_565 S
C91    H277    1.120   .     S
C91    H278    1.140   .     S
C91    H279    1.084   .     S
C91    Si17    1.886   1_565 S
C95    H280    1.099   .     S
C95    H281    1.107   .     S
C95    H282    1.139   .     S
C96    H283    1.058   .     S
C96    H284    1.166   .     S
C96    H285    1.071   .     S
C97    H286    1.087   .     S
C97    H287    1.112   .     S
C97    H288    1.145   .     S
C98    H289    1.147   .     S
C98    H290    1.132   .     S
C98    H291    1.141   .     S
C99    H292    1.149   .     S
C99    H293    1.058   .     S
C99    H294    1.079   .     S
C100   H295    1.138   .     S
C100   H296    1.084   .     S
C100   H297    1.100   .     S
C102   H298    1.112   .     S
C102   H299    1.142   .     S
C102   H300    1.106   .     S
C104   H301    1.089   .     S
C104   H302    1.038   .     S
C104   H303    1.077   .     S
C105   H304    1.094   .     S
C105   H305    1.141   .     S
C105   H306    1.112   .     S
C106   H307    1.065   .     S
C106   H308    1.103   .     S
C106   H309    1.127   .     S
C113   H310    1.152   .     S
C113   H311    1.069   .     S
C113   H312    1.093   .     S
C114   H313    1.172   .     S
C114   H314    1.064   .     S
C114   H315    1.134   .     S
O115   Si25    1.602   1_556 S
C116   H316    1.069   .     S
C116   H317    1.087   .     S
C116   H318    1.035   .     S
C117   H319    1.092   .     S
C117   H320    1.106   .     S
C117   H321    1.090   .     S
C120   H322    1.128   .     S
C120   H323    1.108   .     S
C120   H324    1.126   .     S
C122   H325    1.111   .     S
C122   H326    1.064   .     S
C122   H327    1.070   .     S
C123   H328    1.122   .     S
C123   H329    1.159   .     S
C123   H330    1.124   .     S
C124   H331    1.136   .     S
C124   H332    1.141   .     S
C124   H333    1.057   .     S
C125   H334    1.109   .     S
C125   H335    1.140   .     S
C125   H336    1.032   .     S
C127   H337    1.138   .     S
C127   H338    1.118   .     S
C127   H339    1.129   .     S
C128   H340    1.132   .     S
C128   H341    1.124   .     S
C128   H342    1.092   .     S
C130   H343    1.101   .     S
C130   H344    1.104   .     S
C130   H345    1.117   .     S
C132   H346    1.099   .     S
C132   H347    1.120   .     S
C132   H348    1.071   .     S
C133   H349    1.071   .     S
C133   H350    1.165   .     S
C133   H351    1.136   .     S
O134   Si20    1.639   1_565 S
C135   H352    1.108   .     S
C135   H353    1.137   .     S
C135   H354    1.104   .     S
C137   H355    1.080   .     S
C137   H356    1.132   .     S
C137   H357    1.085   .     S
O138   Si20    1.619   1_565 S
O141   Si3     1.637   1_655 S
O142   Si2     1.628   1_655 S
C145   H358    1.047   .     S
C145   H359    1.098   .     S
C145   H360    1.117   .     S
O146   Si5     1.635   1_655 S
C147   H361    1.083   .     S
C147   H362    1.084   .     S
C147   H363    1.094   .     S
C147   Si38    1.870   1_565 S
C149   H364    1.080   .     S
C149   H365    1.115   .     S
C149   H366    1.125   .     S
C150   H367    1.108   .     S
C150   H368    1.116   .     S
C150   H369    1.114   .     S
C151   H370    1.063   .     S
C151   H371    1.084   .     S
C151   H372    1.085   .     S
O152   Si3     1.585   1_655 S
C153   H373    1.101   .     S
C153   H374    1.103   .     S
C153   H375    1.108   .     S
C155   H376    1.094   .     S
C155   H377    1.090   .     S
C155   H378    1.140   .     S
C157   H379    1.094   .     S
C157   H380    1.140   .     S
C157   H381    1.066   .     S
O158   Si7     1.638   1_655 S
C160   H382    1.087   .     S
C160   H383    1.139   .     S
C160   H384    1.120   .     S
C161   H385    1.118   .     S
C161   H386    1.106   .     S
C161   H387    1.084   .     S
O162   Si11    1.559   1_655 S
O162   Si43    1.620   1_556 S
C164   H388    1.143   .     S
C164   H389    1.082   .     S
C164   H390    1.065   .     S
C165   H391    1.069   .     S
C165   H392    1.165   .     S
C165   H393    1.127   .     S
C166   H394    1.081   .     S
C166   H395    1.077   .     S
C166   H396    1.091   .     S
C167   H397    1.122   .     S
C167   H398    1.124   .     S
C167   H399    1.102   .     S
O169   Si43    1.561   1_556 S
C170   H400    1.147   .     S
C170   H401    1.113   .     S
C170   H402    1.079   .     S
O171   Si25    1.598   1_556 S
C172   H403    1.100   .     S
C172   H404    1.046   .     S
C172   H405    1.083   .     S
C174   H406    1.118   .     S
C174   H407    1.130   .     S
C174   H408    1.133   .     S
C175   H409    1.068   .     S
C175   H410    1.112   .     S
C175   H411    1.110   .     S
C176   H412    1.098   .     S
C176   H413    1.111   .     S
C176   H414    1.161   .     S
C177   H415    1.086   .     S
C177   H416    1.111   .     S
C177   H417    1.104   .     S
C179   H418    1.151   .     S
C179   H419    1.150   .     S
C179   H420    1.043   .     S
C180   H421    1.107   .     S
C180   H422    1.146   .     S
C180   H423    1.129   .     S
C180   Si48    1.922   1_556 S
C182   H424    1.139   .     S
C182   H425    1.053   .     S
C182   H426    1.085   .     S
C183   H427    1.133   .     S
C183   H428    1.097   .     S
C183   H429    1.106   .     S
C183   Si48    1.920   1_556 S
O185   Si36    1.702   1_565 S
C187   H430    1.082   .     S
C187   H431    1.030   .     S
C187   H432    1.058   .     S
C188   H433    1.086   .     S
C188   H434    1.199   .     S
C188   H435    1.174   .     S
C189   H436    1.087   .     S
C189   H437    1.092   .     S
C189   H438    1.104   .     S
O190   Si36    1.618   1_565 S
C191   H439    1.099   .     S
C191   H440    1.073   .     S
C191   H441    1.128   .     S
C191   Si14    1.896   1_655 S
C192   H442    1.092   .     S
C192   H443    1.088   .     S
C192   H444    1.143   .     S
C194   H445    1.052   .     S
C194   H446    1.156   .     S
C194   H447    1.116   .     S
O195   Si38    1.624   1_565 S
