data_333-11-11-14-15-30-12
_audit_creation_date              2025-03-07
_audit_creation_method            'Materials Studio'
_symmetry_space_group_name_H-M    'P1'
_symmetry_Int_Tables_number       1
_symmetry_cell_setting            triclinic
loop_
_symmetry_equiv_pos_as_xyz
  x,y,z
_cell_length_a                    15.8733
_cell_length_b                    16.2975
_cell_length_c                    22.7176
_cell_angle_alpha                 87.4018
_cell_angle_beta                  77.7013
_cell_angle_gamma                 123.1374
loop_
_atom_site_label
_atom_site_type_symbol
_atom_site_fract_x
_atom_site_fract_y
_atom_site_fract_z
_atom_site_U_iso_or_equiv
_atom_site_adp_type
_atom_site_occupancy
Si1    Si    0.07836   0.18469   0.62347   0.00000  Uiso   1.00
Si2    Si    0.15788  -0.04752   0.78044   0.00000  Uiso   1.00
Si3    Si   -0.04487   0.10817   0.89286   0.00000  Uiso   1.00
Si4    Si    0.18951   0.14889   0.70747   0.00000  Uiso   1.00
Si5    Si    0.02337   0.27715   0.05359   0.00000  Uiso   1.00
Si6    Si    0.10450   0.43438  -0.06397   0.00000  Uiso   1.00
Si7    Si    0.23388   0.33773   0.50118   0.00000  Uiso   1.00
Si8    Si    0.05147   0.51661   0.59753   0.00000  Uiso   1.00
Si9    Si    0.31981   0.55641   0.45958   0.00000  Uiso   1.00
Si10   Si    0.16333   0.27612   0.80102   0.00000  Uiso   1.00
Si11   Si   -0.04473   0.43368   0.86381   0.00000  Uiso   1.00
Si12   Si    0.27295   0.68832   0.52639   0.00000  Uiso   1.00
Si13   Si    0.07555   0.83688   0.59108   0.00000  Uiso   1.00
Si14   Si    0.12139   0.64585   0.79076   0.00000  Uiso   1.00
Si15   Si   -0.03140   0.76455   0.87220   0.00000  Uiso   1.00
Si16   Si    0.16877   0.81353   0.69349   0.00000  Uiso   1.00
Si17   Si    0.23006   0.00145   0.00504   0.00000  Uiso   1.00
Si18   Si    0.60241   0.24593   0.35748   0.00000  Uiso   1.00
Si19   Si    0.39174   0.18769   0.63272   0.00000  Uiso   1.00
Si20   Si    0.40692   0.14490   0.31274   0.00000  Uiso   1.00
Si21   Si    0.48576   0.01234   0.77750   0.00000  Uiso   1.00
Si22   Si    0.28381   0.08075   0.87047   0.00000  Uiso   1.00
Si23   Si    0.54266   0.20002   0.70411   0.00000  Uiso   1.00
Si24   Si    0.34298   0.20331   0.04712   0.00000  Uiso   1.00
Si25   Si    0.41114   0.38424  -0.04603   0.00000  Uiso   1.00
Si26   Si    0.45711   0.51982   0.66051   0.00000  Uiso   1.00
Si27   Si    0.51037   0.27546   0.81719   0.00000  Uiso   1.00
Si28   Si    0.30381   0.43096   0.87053   0.00000  Uiso   1.00
Si29   Si    0.53129   0.44855   0.75404   0.00000  Uiso   1.00
Si30   Si    0.43691   0.51797   0.04911   0.00000  Uiso   1.00
Si31   Si    0.63467   0.71081   0.56441   0.00000  Uiso   1.00
Si32   Si    0.37193   0.84028   0.60612   0.00000  Uiso   1.00
Si33   Si    0.52708   0.60930   0.80849   0.00000  Uiso   1.00
Si34   Si    0.30924   0.79612   0.83917   0.00000  Uiso   1.00
Si35   Si    0.43068  -0.20625   0.18214   0.00000  Uiso   1.00
Si36   Si    0.73356   0.00266   0.28357   0.00000  Uiso   1.00
Si37   Si    0.61347   0.11645   0.86253   0.00000  Uiso   1.00
Si38   Si    0.89637   0.19007   0.68792   0.00000  Uiso   1.00
Si39   Si    0.71419   0.29631   0.09710   0.00000  Uiso   1.00
Si40   Si    0.83559   0.69717   0.28535   0.00000  Uiso   1.00
Si41   Si    0.76692   0.40750  -0.03238   0.00000  Uiso   1.00
Si42   Si    0.95469   0.44521   0.48864   0.00000  Uiso   1.00
Si43   Si    0.72952   0.51284   0.65208   0.00000  Uiso   1.00
Si44   Si    1.05327   0.87116   0.29330   0.00000  Uiso   1.00
Si45   Si    0.83283   0.30262   0.78034   0.00000  Uiso   1.00
Si46   Si    0.62873   0.41508   0.89255   0.00000  Uiso   1.00
Si47   Si    0.88326   0.49526   0.70292   0.00000  Uiso   1.00
Si48   Si    0.79760   0.70370   0.15982   0.00000  Uiso   1.00
Si49   Si    0.20836   0.60406   0.21533   0.00000  Uiso   1.00
Si50   Si    0.86724   1.09004   0.37427   0.00000  Uiso   1.00
Si51   Si    0.84301   0.60441   0.80445   0.00000  Uiso   1.00
C52    C    -0.06884   0.01714   0.96001   0.00000  Uiso   1.00
C53    C     0.88760   0.16608   0.91935   0.00000  Uiso   1.00
C54    C     0.89065   0.02507   0.83894   0.00000  Uiso   1.00
O55    O     0.10551   0.12972   0.67005   0.00000  Uiso   1.00
O56    O     0.15378   0.03603   0.74091   0.00000  Uiso   1.00
C57    C    -0.11266   0.16190   0.08628   0.00000  Uiso   1.00
C58    C     0.11361   0.23633   0.03138   0.00000  Uiso   1.00
C59    C     0.06453   0.35912   0.11153   0.00000  Uiso   1.00
O60    O     0.03613   0.34294  -0.00728   0.00000  Uiso   1.00
C61    C     0.12759   0.54567  -0.02919   0.00000  Uiso   1.00
O62    O     0.18372   0.27989   0.57059   0.00000  Uiso   1.00
C63    C     0.14440   0.27155   0.45169   0.00000  Uiso   1.00
C64    C     0.09705   0.44121   0.62280   0.00000  Uiso   1.00
C65    C     0.28506   0.57076   0.38801   0.00000  Uiso   1.00
O66    O     0.25001   0.44503   0.49603   0.00000  Uiso   1.00
C67    C     0.46173   0.60021   0.42649   0.00000  Uiso   1.00
O68    O     0.07582   0.19642   0.86322   0.00000  Uiso   1.00
O69    O     0.19753   0.21945   0.75829   0.00000  Uiso   1.00
C70    C     0.10740   0.32695   0.76250   0.00000  Uiso   1.00
O71    O     0.03738   0.41709   0.88657   0.00000  Uiso   1.00
O72    O     0.14823   0.61968   0.55749   0.00000  Uiso   1.00
O73    O     0.30811   0.61835   0.50723   0.00000  Uiso   1.00
C74    C     0.31661   0.78015   0.45575   0.00000  Uiso   1.00
C75    C     0.19397   0.92572   0.53099   0.00000  Uiso   1.00
C76    C     1.00848   0.90223   0.60494   0.00000  Uiso   1.00
C77    C     1.01748   0.73016   0.55223   0.00000  Uiso   1.00
O78    O     0.01177   0.54876   0.83647   0.00000  Uiso   1.00
C79    C     0.18511   0.59198   0.74960   0.00000  Uiso   1.00
C80    C     0.04995   0.76632   0.92075   0.00000  Uiso   1.00
O81    O     0.04355   0.86975   0.82411   0.00000  Uiso   1.00
C82    C     0.85796   0.76314   0.91939   0.00000  Uiso   1.00
O83    O     0.09215   0.80482   0.65434   0.00000  Uiso   1.00
O84    O     0.11123   0.70405   0.73568   0.00000  Uiso   1.00
O85    O     0.19549   0.89832   0.73534   0.00000  Uiso   1.00
C86    C     0.09013  -0.03955   0.03791   0.00000  Uiso   1.00
C87    C     0.73947   0.31562   0.30311   0.00000  Uiso   1.00
C88    C     0.58958   1.16903   0.42318   0.00000  Uiso   1.00
C89    C     0.33538   0.05656   0.62556   0.00000  Uiso   1.00
C90    C     0.46222   0.26091   0.55483   0.00000  Uiso   1.00
O91    O     0.30193   0.20226   0.66039   0.00000  Uiso   1.00
C92    C     0.39087   0.08880   0.24360   0.00000  Uiso   1.00
O93    O     0.52035   0.18844   0.31924   0.00000  Uiso   1.00
C94    C     0.30135   0.06213   0.38338   0.00000  Uiso   1.00
C95    C     0.40596   0.25580   0.29586   0.00000  Uiso   1.00
C96    C     0.59919   1.01399   0.73373   0.00000  Uiso   1.00
O97    O     0.24134   0.01092   0.82088   0.00000  Uiso   1.00
O98    O     0.25474   0.01403   0.93479   0.00000  Uiso   1.00
C99    C     0.21546   0.14173   0.88360   0.00000  Uiso   1.00
O100   O     0.46894   0.21657   0.67452   0.00000  Uiso   1.00
O101   O     0.47435   0.08816   0.73690   0.00000  Uiso   1.00
C102   C     0.65953   0.22448   0.64993   0.00000  Uiso   1.00
C103   C     0.24116   0.16550   0.12242   0.00000  Uiso   1.00
O104   O     0.31333   0.10757   0.02129   0.00000  Uiso   1.00
O105   O     0.35077   0.27844  -0.00376   0.00000  Uiso   1.00
C106   C     0.36135   0.34527   0.46577   0.00000  Uiso   1.00
C107   C     0.40234   0.44649   0.59851   0.00000  Uiso   1.00
C108   C     0.36642   0.55353   0.69305   0.00000  Uiso   1.00
O109   O     0.40895   0.16728   0.84992   0.00000  Uiso   1.00
O110   O     0.56555   0.26385   0.75515   0.00000  Uiso   1.00
O111   O     0.26220   0.36854   0.81811   0.00000  Uiso   1.00
O112   O     0.34590   0.37876   0.90590   0.00000  Uiso   1.00
O113   O     0.21149   0.43931   0.91119   0.00000  Uiso   1.00
O114   O     0.46706   0.45135   0.70917   0.00000  Uiso   1.00
O115   O     0.48114   0.34914   0.79796   0.00000  Uiso   1.00
C116   C     0.36179   0.57896   0.05705   0.00000  Uiso   1.00
O117   O     0.41742   0.46364  -0.00569   0.00000  Uiso   1.00
C118   C     0.58044   0.61935   0.03773   0.00000  Uiso   1.00
O119   O     0.56787   0.61745   0.62404   0.00000  Uiso   1.00
C120   C     0.70687   0.69490   0.49360   0.00000  Uiso   1.00
C121   C     0.55022   0.74400   0.54196   0.00000  Uiso   1.00
O122   O     0.32899   0.74766   0.57495   0.00000  Uiso   1.00
C123   C     0.44452   0.83594   0.65801   0.00000  Uiso   1.00
C124   C     0.46988   0.95758   0.54709   0.00000  Uiso   1.00
C125   C     0.59698   1.34937   0.38884   0.00000  Uiso   1.00
O126   O     0.27743   0.84549   0.64461   0.00000  Uiso   1.00
O127   O     0.40326   0.54243   0.83536   0.00000  Uiso   1.00
O128   O     0.55873   0.53608   0.78677   0.00000  Uiso   1.00
C129   C     0.59033   0.72767   0.75282   0.00000  Uiso   1.00
C130   C     0.57462   0.64810   0.87504   0.00000  Uiso   1.00
O131   O     0.19533   0.72540   0.82920   0.00000  Uiso   1.00
C132   C     0.38185   0.73999   0.83246   0.00000  Uiso   1.00
O133   O     0.38036   0.90552   0.79795   0.00000  Uiso   1.00
C134   C     0.29110   0.81550   0.91717   0.00000  Uiso   1.00
C135   C     0.56259  -0.19100   0.15546   0.00000  Uiso   1.00
C136   C     0.41682  -0.14283   0.11672   0.00000  Uiso   1.00
C137   C     0.42822   0.86364   0.24091   0.00000  Uiso   1.00
C138   C     0.67871   0.06564   0.24989   0.00000  Uiso   1.00
C139   C     0.83250   0.00779   0.21842   0.00000  Uiso   1.00
C140   C     0.99139   0.08878   0.58114   0.00000  Uiso   1.00
C141   C     0.63113   0.87110   0.32402   0.00000  Uiso   1.00
O142   O     0.52374   0.06663   0.83059   0.00000  Uiso   1.00
C143   C     0.66031   0.03487   0.87626   0.00000  Uiso   1.00
C144   C     0.55801   0.13610   0.93698   0.00000  Uiso   1.00
C145   C     0.25019  -0.09168   1.04520   0.00000  Uiso   1.00
O146   O     1.01441   0.22337   0.66364   0.00000  Uiso   1.00
C147   C     0.87145   0.22242   0.61692   0.00000  Uiso   1.00
C148   C     0.81498   0.05051   0.71014   0.00000  Uiso   1.00
C149   C     0.64555   0.34108   0.14755   0.00000  Uiso   1.00
C150   C     0.63580   0.15790   0.12249   0.00000  Uiso   1.00
C151   C     0.84207   0.35311   0.11049   0.00000  Uiso   1.00
C152   C     0.46368   0.24379   0.06940   0.00000  Uiso   1.00
C153   C     0.86091   0.60018   0.28868   0.00000  Uiso   1.00
C154   C     0.70286   0.65155   0.33472   0.00000  Uiso   1.00
O155   O     0.85198   0.40399   0.91665   0.00000  Uiso   1.00
O156   O     0.71718   0.32056   0.02691   0.00000  Uiso   1.00
C157   C     0.81768   0.36302   0.48824   0.00000  Uiso   1.00
C158   C     1.02076   0.39166   0.44587   0.00000  Uiso   1.00
O159   O     0.96852   0.45173   0.55746   0.00000  Uiso   1.00
C160   C     0.66817   0.45343   0.59045   0.00000  Uiso   1.00
C161   C     0.78453   0.64153   0.62915   0.00000  Uiso   1.00
O162   O     0.64017   0.47559   0.71358   0.00000  Uiso   1.00
C163   C     1.08218   1.00472   0.28939   0.00000  Uiso   1.00
O164   O     0.92780   0.79154   0.30422   0.00000  Uiso   1.00
C165   C     1.00990   0.57195   0.44691   0.00000  Uiso   1.00
C166   C     1.12621   0.87379   0.21661   0.00000  Uiso   1.00
C167   C     1.09644   0.82991   0.35216   0.00000  Uiso   1.00
O168   O     0.71511   0.22539   0.81978   0.00000  Uiso   1.00
O169   O     0.87622   0.24430   0.74085   0.00000  Uiso   1.00
O170   O     0.91317   0.36050   0.81745   0.00000  Uiso   1.00
O171   O     0.58433   0.32462   0.85944   0.00000  Uiso   1.00
O172   O     0.67041   0.38903   0.94400   0.00000  Uiso   1.00
O173   O     0.52955   0.42389   0.92225   0.00000  Uiso   1.00
O174   O     0.99558   0.53784   0.65718   0.00000  Uiso   1.00
O175   O     0.81399   0.49366   0.66153   0.00000  Uiso   1.00
O176   O     0.83527   0.38270   0.73444   0.00000  Uiso   1.00
O177   O     0.84809   0.73535   0.21395   0.00000  Uiso   1.00
C178   C     0.82117   0.52582  -0.00889   0.00000  Uiso   1.00
C179   C     0.87663   0.66700   0.10728   0.00000  Uiso   1.00
C180   C     0.65246   0.59075   0.17780   0.00000  Uiso   1.00
C181   C     0.82271   0.82079   0.11700   0.00000  Uiso   1.00
C182   C     0.38102   0.42866   0.12552   0.00000  Uiso   1.00
C183   C     0.18524   0.47815   0.23153   0.00000  Uiso   1.00
C184   C     0.13922   0.61591   0.28345   0.00000  Uiso   1.00
O185   O     0.33059   0.68196   0.20261   0.00000  Uiso   1.00
C186   C     0.15593   0.61678   0.15281   0.00000  Uiso   1.00
C187   C     0.73269   0.82773   0.59015   0.00000  Uiso   1.00
C188   C     1.00506   1.18251   0.32922   0.00000  Uiso   1.00
C189   C     0.82474   1.13034   0.44496   0.00000  Uiso   1.00
O190   O     0.78896   1.06791   0.33237   0.00000  Uiso   1.00
C191   C     0.84639   0.96820   0.39503   0.00000  Uiso   1.00
O192   O     0.72527   0.52239   0.84719   0.00000  Uiso   1.00
O193   O     0.88605   0.56285   0.75311   0.00000  Uiso   1.00
C194   C     0.82985   0.69983   0.76599   0.00000  Uiso   1.00
O195   O     0.92375   0.66733   0.83945   0.00000  Uiso   1.00
H196   H    -0.15409  -0.02976   0.97851   0.00000  Uiso   1.00
H197   H    -0.02732   0.06454   0.98981   0.00000  Uiso   1.00
H198   H    -0.04284  -0.02957   0.93787   0.00000  Uiso   1.00
H199   H     0.91879   0.21262   0.95368   0.00000  Uiso   1.00
H200   H     0.80149   0.10506   0.94133   0.00000  Uiso   1.00
H201   H     0.90140   0.21696   0.87870   0.00000  Uiso   1.00
H202   H     0.93633  -0.00870   0.82765   0.00000  Uiso   1.00
H203   H     0.90464   0.06840   0.79762   0.00000  Uiso   1.00
H204   H     0.80288  -0.03310   0.85901   0.00000  Uiso   1.00
H205   H    -0.15959   0.15394   0.05697   0.00000  Uiso   1.00
H206   H    -0.15683   0.16458   0.13193   0.00000  Uiso   1.00
H207   H    -0.11345   0.09489   0.08571   0.00000  Uiso   1.00
H208   H     0.13692   0.24468  -0.02144   0.00000  Uiso   1.00
H209   H     0.07436   0.16142   0.05567   0.00000  Uiso   1.00
H210   H     0.18282   0.29062   0.04534   0.00000  Uiso   1.00
H211   H     0.11154   0.34669   0.13203   0.00000  Uiso   1.00
H212   H    -0.00250   0.34880   0.14340   0.00000  Uiso   1.00
H213   H     0.11458   0.43646   0.08894   0.00000  Uiso   1.00
H214   H     0.04549   0.52481  -0.00763   0.00000  Uiso   1.00
H215   H     0.16962   0.61239  -0.06587   0.00000  Uiso   1.00
H216   H     0.17013   0.55788   0.00694   0.00000  Uiso   1.00
H217   H     0.13528   0.19934   0.44790   0.00000  Uiso   1.00
H218   H     0.18191   0.32032   0.40613   0.00000  Uiso   1.00
H219   H     0.06615   0.25537   0.47614   0.00000  Uiso   1.00
H220   H     0.08361   0.39236   0.59173   0.00000  Uiso   1.00
H221   H     0.05423   0.40457   0.67327   0.00000  Uiso   1.00
H222   H     0.18205   0.49171   0.62439   0.00000  Uiso   1.00
H223   H     0.26239   0.50580   0.36695   0.00000  Uiso   1.00
H224   H     0.36689   0.63408   0.35547   0.00000  Uiso   1.00
H225   H     0.23124   0.59234   0.39296   0.00000  Uiso   1.00
H226   H     0.46324   0.56070   0.39085   0.00000  Uiso   1.00
H227   H     0.49095   0.58446   0.46470   0.00000  Uiso   1.00
H228   H     0.51403   0.68643   0.40544   0.00000  Uiso   1.00
H229   H     0.02845   0.25713   0.77343   0.00000  Uiso   1.00
H230   H     0.15630   0.34825   0.71493   0.00000  Uiso   1.00
H231   H     0.11332   0.38318   0.78550   0.00000  Uiso   1.00
H232   H     0.27344   0.74737   0.42117   0.00000  Uiso   1.00
H233   H     0.39937   0.81553   0.43681   0.00000  Uiso   1.00
H234   H     0.30662   0.83915   0.47030   0.00000  Uiso   1.00
H235   H     0.17469   0.91507   0.48741   0.00000  Uiso   1.00
H236   H     0.25358   0.91311   0.53518   0.00000  Uiso   1.00
H237   H     0.22579   1.00407   0.53136   0.00000  Uiso   1.00
H238   H     0.97308   0.90068   0.56780   0.00000  Uiso   1.00
H239   H     1.06781   0.98336   0.60192   0.00000  Uiso   1.00
H240   H     0.94452   0.86182   0.64892   0.00000  Uiso   1.00
H241   H     1.07282   0.72316   0.51893   0.00000  Uiso   1.00
H242   H     0.96790   0.73611   0.52910   0.00000  Uiso   1.00
H243   H     0.97527   0.66269   0.58726   0.00000  Uiso   1.00
H244   H     0.22996   0.63510   0.70309   0.00000  Uiso   1.00
H245   H     0.12375   0.51571   0.74838   0.00000  Uiso   1.00
H246   H     0.23156   0.58946   0.77797   0.00000  Uiso   1.00
H247   H     0.03660   0.69198   0.93115   0.00000  Uiso   1.00
H248   H     0.03764   0.79235   0.96541   0.00000  Uiso   1.00
H249   H     0.12892   0.82618   0.89236   0.00000  Uiso   1.00
H250   H     0.87467   0.78871   0.96004   0.00000  Uiso   1.00
H251   H     0.78513   0.68504   0.93276   0.00000  Uiso   1.00
H252   H     0.83766   0.80636   0.89623   0.00000  Uiso   1.00
H253   H     0.07095  -0.01446  -0.00194   0.00000  Uiso   1.00
H254   H     0.08593  -0.00260   0.07514   0.00000  Uiso   1.00
H255   H     0.03485  -0.12219   0.05330   0.00000  Uiso   1.00
H256   H     0.76091   0.26179   0.28694   0.00000  Uiso   1.00
H257   H     0.79736   0.35953   0.32879   0.00000  Uiso   1.00
H258   H     0.74860   0.36095   0.25979   0.00000  Uiso   1.00
H259   H     0.62461   1.12499   0.40744   0.00000  Uiso   1.00
H260   H     0.50563   1.11892   0.44981   0.00000  Uiso   1.00
H261   H     0.63935   1.21909   0.45392   0.00000  Uiso   1.00
H262   H     0.36342   0.02256   0.65398   0.00000  Uiso   1.00
H263   H     0.37017   0.05463   0.57925   0.00000  Uiso   1.00
H264   H     0.24836   0.02715   0.63638   0.00000  Uiso   1.00
H265   H     0.40794   0.22997   0.52786   0.00000  Uiso   1.00
H266   H     0.52041   0.24841   0.53247   0.00000  Uiso   1.00
H267   H     0.49290   0.34465   0.55055   0.00000  Uiso   1.00
H268   H     0.32035   0.07306   0.23111   0.00000  Uiso   1.00
H269   H     0.38338   0.02020   0.24277   0.00000  Uiso   1.00
H270   H     0.45806   0.14084   0.20077   0.00000  Uiso   1.00
H271   H     0.27760  -0.01223   0.38521   0.00000  Uiso   1.00
H272   H     0.22575   0.04888   0.38343   0.00000  Uiso   1.00
H273   H     0.32221   0.09795   0.42419   0.00000  Uiso   1.00
H274   H     0.45174   0.32029   0.31807   0.00000  Uiso   1.00
H275   H     0.32119   0.23021   0.30750   0.00000  Uiso   1.00
H276   H     0.44341   0.28451   0.24492   0.00000  Uiso   1.00
H277   H     0.66817   1.08122   0.73976   0.00000  Uiso   1.00
H278   H     0.60526   1.02333   0.68665   0.00000  Uiso   1.00
H279   H     0.59451   0.94737   0.75083   0.00000  Uiso   1.00
H280   H     0.13765   0.09186   0.88166   0.00000  Uiso   1.00
H281   H     0.26345   0.21686   0.85416   0.00000  Uiso   1.00
H282   H     0.20218   0.15637   0.93319   0.00000  Uiso   1.00
H283   H     0.64644   0.16710   0.62178   0.00000  Uiso   1.00
H284   H     0.71018   0.22915   0.67771   0.00000  Uiso   1.00
H285   H     0.70545   0.29975   0.62225   0.00000  Uiso   1.00
H286   H     0.27818   0.19269   0.15956   0.00000  Uiso   1.00
H287   H     0.18141   0.08409   0.13458   0.00000  Uiso   1.00
H288   H     0.20016   0.20269   0.12248   0.00000  Uiso   1.00
H289   H     0.39114   0.37187   0.41665   0.00000  Uiso   1.00
H290   H     0.34281   0.26871   0.47362   0.00000  Uiso   1.00
H291   H     0.42445   0.40081   0.48803   0.00000  Uiso   1.00
H292   H     0.35867   0.47435   0.57979   0.00000  Uiso   1.00
H293   H     0.35172   0.36272   0.61157   0.00000  Uiso   1.00
H294   H     0.47040   0.46575   0.56202   0.00000  Uiso   1.00
H295   H     0.29235   0.48119   0.71576   0.00000  Uiso   1.00
H296   H     0.35535   0.58494   0.65192   0.00000  Uiso   1.00
H297   H     0.38183   0.59984   0.72711   0.00000  Uiso   1.00
H298   H     0.28657   0.53092   0.05348   0.00000  Uiso   1.00
H299   H     0.40417   0.65361   0.02612   0.00000  Uiso   1.00
H300   H     0.36115   0.60155   0.10375   0.00000  Uiso   1.00
H301   H     0.62794   0.59104   0.01712   0.00000  Uiso   1.00
H302   H     0.59100   0.63575   0.08344   0.00000  Uiso   1.00
H303   H     0.59587   0.68546   0.00892   0.00000  Uiso   1.00
H304   H     0.78807   0.74044   0.49462   0.00000  Uiso   1.00
H305   H     0.70260   0.72168   0.44803   0.00000  Uiso   1.00
H306   H     0.68368   0.61775   0.49409   0.00000  Uiso   1.00
H307   H     0.53605   0.79159   0.56806   0.00000  Uiso   1.00
H308   H     0.47373   0.67724   0.54616   0.00000  Uiso   1.00
H309   H     0.58685   0.78705   0.49241   0.00000  Uiso   1.00
H310   H     0.42147   0.76164   0.66942   0.00000  Uiso   1.00
H311   H     0.42110   0.85611   0.70162   0.00000  Uiso   1.00
H312   H     0.53381   0.89026   0.63545   0.00000  Uiso   1.00
H313   H     0.50583   1.02427   0.56656   0.00000  Uiso   1.00
H314   H     0.42842   0.96850   0.51588   0.00000  Uiso   1.00
H315   H     0.52775   0.94777   0.51457   0.00000  Uiso   1.00
H316   H     0.65366   1.38070   0.41504   0.00000  Uiso   1.00
H317   H     0.51998   1.31787   0.41500   0.00000  Uiso   1.00
H318   H     0.62279   1.40101   0.34642   0.00000  Uiso   1.00
H319   H     0.67847   0.76266   0.73530   0.00000  Uiso   1.00
H320   H     0.57909   0.78000   0.77792   0.00000  Uiso   1.00
H321   H     0.56099   0.71458   0.71184   0.00000  Uiso   1.00
H322   H     0.51719   0.63321   0.91915   0.00000  Uiso   1.00
H323   H     0.63095   0.72965   0.86636   0.00000  Uiso   1.00
H324   H     0.62025   0.62269   0.89003   0.00000  Uiso   1.00
H325   H     0.33191   0.66771   0.86577   0.00000  Uiso   1.00
H326   H     0.45694   0.79607   0.84460   0.00000  Uiso   1.00
H327   H     0.39973   0.73612   0.78278   0.00000  Uiso   1.00
H328   H     0.35422   0.82365   0.93661   0.00000  Uiso   1.00
H329   H     0.21382   0.75014   0.94491   0.00000  Uiso   1.00
H330   H     0.29774   0.89097   0.91563   0.00000  Uiso   1.00
H331   H     0.62696  -0.11525   0.12808   0.00000  Uiso   1.00
H332   H     0.54566  -0.25185   0.12898   0.00000  Uiso   1.00
H333   H     0.58054  -0.20887   0.19641   0.00000  Uiso   1.00
H334   H     0.40894  -0.19126   0.08185   0.00000  Uiso   1.00
H335   H     0.49239  -0.07197   0.10047   0.00000  Uiso   1.00
H336   H     0.35356  -0.13119   0.13199   0.00000  Uiso   1.00
H337   H     0.44307   0.83788   0.28248   0.00000  Uiso   1.00
H338   H     0.35113   0.85176   0.25429   0.00000  Uiso   1.00
H339   H     0.48494   0.94116   0.21929   0.00000  Uiso   1.00
H340   H     0.64414   0.03346   0.21090   0.00000  Uiso   1.00
H341   H     0.73645   0.14758   0.23559   0.00000  Uiso   1.00
H342   H     0.60972   0.05527   0.27980   0.00000  Uiso   1.00
H343   H     0.78466  -0.03355   0.18575   0.00000  Uiso   1.00
H344   H     0.85849  -0.03493   0.23534   0.00000  Uiso   1.00
H345   H     0.90539   0.08655   0.19599   0.00000  Uiso   1.00
H346   H     1.04976   0.09725   0.54193   0.00000  Uiso   1.00
H347   H     0.94144   0.11049   0.56582   0.00000  Uiso   1.00
H348   H     0.94125   0.01391   0.60933   0.00000  Uiso   1.00
H349   H     0.66646   0.84944   0.35348   0.00000  Uiso   1.00
H350   H     0.61163   0.82350   0.28899   0.00000  Uiso   1.00
H351   H     0.55605   0.86560   0.35107   0.00000  Uiso   1.00
H352   H     0.61528  -0.03031   0.85517   0.00000  Uiso   1.00
H353   H     0.64405  -0.00105   0.92385   0.00000  Uiso   1.00
H354   H     0.74579   0.07436   0.85628   0.00000  Uiso   1.00
H355   H     0.62561   0.18355   0.95505   0.00000  Uiso   1.00
H356   H     0.50136   0.06423   0.96970   0.00000  Uiso   1.00
H357   H     0.51989   0.17435   0.92765   0.00000  Uiso   1.00
H358   H     0.25227  -0.08226   1.09431   0.00000  Uiso   1.00
H359   H     0.32975  -0.07155   1.02367   0.00000  Uiso   1.00
H360   H     0.18714  -0.17087   1.04692   0.00000  Uiso   1.00
H361   H     0.79635   0.16620   0.60681   0.00000  Uiso   1.00
H362   H     0.94309   0.24369   0.57954   0.00000  Uiso   1.00
H363   H     0.86830   0.28538   0.62147   0.00000  Uiso   1.00
H364   H     0.86610   0.02331   0.70661   0.00000  Uiso   1.00
H365   H     0.77063   0.01941   0.67560   0.00000  Uiso   1.00
H366   H     0.76705   0.03073   0.75900   0.00000  Uiso   1.00
H367   H     0.63460   0.31492   0.19510   0.00000  Uiso   1.00
H368   H     0.56077   0.31119   0.14984   0.00000  Uiso   1.00
H369   H     0.68849   0.42151   0.13525   0.00000  Uiso   1.00
H370   H     0.55580   0.12526   0.11326   0.00000  Uiso   1.00
H371   H     0.62294   0.13816   0.16888   0.00000  Uiso   1.00
H372   H     0.68342   0.14041   0.09170   0.00000  Uiso   1.00
H373   H     0.88105   0.33036   0.07818   0.00000  Uiso   1.00
H374   H     0.83716   0.32526   0.15864   0.00000  Uiso   1.00
H375   H     0.87710   0.43596   0.10385   0.00000  Uiso   1.00
H376   H     0.43650   0.19226   0.11285   0.00000  Uiso   1.00
H377   H     0.51355   0.33057   0.06826   0.00000  Uiso   1.00
H378   H     0.50308   0.22573   0.03497   0.00000  Uiso   1.00
H379   H     0.80346   0.53427   0.27364   0.00000  Uiso   1.00
H380   H     0.85973   0.57919   0.33750   0.00000  Uiso   1.00
H381   H     0.94445   0.63259   0.25493   0.00000  Uiso   1.00
H382   H     0.70843   0.71915   0.33967   0.00000  Uiso   1.00
H383   H     0.69659   0.61202   0.37847   0.00000  Uiso   1.00
H384   H     0.63413   0.60034   0.31823   0.00000  Uiso   1.00
H385   H     0.78910   0.28233   0.50552   0.00000  Uiso   1.00
H386   H     0.80501   0.37669   0.44288   0.00000  Uiso   1.00
H387   H     0.77158   0.38218   0.52168   0.00000  Uiso   1.00
H388   H     1.04362   0.40917   0.39626   0.00000  Uiso   1.00
H389   H     0.96861   0.30919   0.46351   0.00000  Uiso   1.00
H390   H     1.08965   0.42157   0.46097   0.00000  Uiso   1.00
H391   H     0.72838   0.48922   0.54520   0.00000  Uiso   1.00
H392   H     0.61330   0.47039   0.58572   0.00000  Uiso   1.00
H393   H     0.63320   0.37276   0.60005   0.00000  Uiso   1.00
H394   H     0.80564   0.66311   0.57854   0.00000  Uiso   1.00
H395   H     0.85998   0.67884   0.63836   0.00000  Uiso   1.00
H396   H     0.73314   0.66356   0.65113   0.00000  Uiso   1.00
H397   H     1.04023   1.01739   0.25557   0.00000  Uiso   1.00
H398   H     1.16903   1.06078   0.27579   0.00000  Uiso   1.00
H399   H     1.04486   1.01222   0.33398   0.00000  Uiso   1.00
H400   H     1.01627   0.57031   0.39873   0.00000  Uiso   1.00
H401   H     1.08841   0.62034   0.44879   0.00000  Uiso   1.00
H402   H     0.95395   0.59379   0.46353   0.00000  Uiso   1.00
H403   H     1.20900   0.93363   0.21013   0.00000  Uiso   1.00
H404   H     1.09636   0.88897   0.18302   0.00000  Uiso   1.00
H405   H     1.11084   0.79748   0.21088   0.00000  Uiso   1.00
H406   H     1.17409   0.84790   0.32683   0.00000  Uiso   1.00
H407   H     1.04259   0.74515   0.36926   0.00000  Uiso   1.00
H408   H     1.09666   0.87184   0.38819   0.00000  Uiso   1.00
H409   H     0.76095   0.52248   0.02899   0.00000  Uiso   1.00
H410   H     0.83940   0.57796  -0.05072   0.00000  Uiso   1.00
H411   H     0.88806   0.54273   0.00406   0.00000  Uiso   1.00
H412   H     0.84089   0.58367   0.12772   0.00000  Uiso   1.00
H413   H     0.96246   0.71286   0.10413   0.00000  Uiso   1.00
H414   H     0.87229   0.67601   0.05901   0.00000  Uiso   1.00
H415   H     0.59790   0.61111   0.19723   0.00000  Uiso   1.00
H416   H     0.64345   0.52541   0.20567   0.00000  Uiso   1.00
H417   H     0.63595   0.56303   0.13681   0.00000  Uiso   1.00
H418   H     0.89304   0.89116   0.11991   0.00000  Uiso   1.00
H419   H     0.75158   0.82547   0.13369   0.00000  Uiso   1.00
H420   H     0.82491   0.80605   0.07088   0.00000  Uiso   1.00
H421   H     0.29279   0.37795   0.13559   0.00000  Uiso   1.00
H422   H     0.40822   0.47648   0.16142   0.00000  Uiso   1.00
H423   H     0.40393   0.37761   0.12183   0.00000  Uiso   1.00
H424   H     0.20089   0.46910   0.27560   0.00000  Uiso   1.00
H425   H     0.24115   0.47370   0.19938   0.00000  Uiso   1.00
H426   H     0.10497   0.40923   0.23021   0.00000  Uiso   1.00
H427   H     0.11855   0.67196   0.27954   0.00000  Uiso   1.00
H428   H     0.19589   0.65139   0.31364   0.00000  Uiso   1.00
H429   H     0.07229   0.53899   0.30801   0.00000  Uiso   1.00
H430   H     0.15059   0.68020   0.15927   0.00000  Uiso   1.00
H431   H     0.07902   0.55089   0.15827   0.00000  Uiso   1.00
H432   H     0.20575   0.63002   0.10605   0.00000  Uiso   1.00
H433   H     0.79577   0.82874   0.60624   0.00000  Uiso   1.00
H434   H     0.69357   0.84401   0.62890   0.00000  Uiso   1.00
H435   H     0.78468   0.89366   0.55227   0.00000  Uiso   1.00
H436   H     1.06182   1.18559   0.35007   0.00000  Uiso   1.00
H437   H     1.02032   1.25617   0.32412   0.00000  Uiso   1.00
H438   H     1.02158   1.16780   0.28288   0.00000  Uiso   1.00
H439   H     0.74779   1.06254   0.47247   0.00000  Uiso   1.00
H440   H     0.81478   1.18985   0.43151   0.00000  Uiso   1.00
H441   H     0.87783   1.13888   0.47071   0.00000  Uiso   1.00
H442   H     0.76378   0.91216   0.42494   0.00000  Uiso   1.00
H443   H     0.90790   0.98717   0.42058   0.00000  Uiso   1.00
H444   H     0.86135   0.94022   0.35228   0.00000  Uiso   1.00
H445   H     0.76596   0.65926   0.74520   0.00000  Uiso   1.00
H446   H     0.89994   0.75776   0.73334   0.00000  Uiso   1.00
H447   H     0.80579   0.73692   0.79613   0.00000  Uiso   1.00
loop_
_geom_bond_atom_site_label_1
_geom_bond_atom_site_label_2
_geom_bond_distance
_geom_bond_site_symmetry_2
_ccdc_geom_bond_type
Si1    O55     1.624   .     S
Si1    O62     1.669   .     S
Si1    C140    1.902   1_455 S
Si1    O146    1.618   1_455 S
Si2    O56     1.636   .     S
Si2    O97     1.651   .     S
Si2    O81     1.591   1_545 S
Si2    O85     1.607   1_545 S
Si3    C52     1.898   .     S
Si3    O68     1.594   .     S
Si3    C53     1.812   1_455 S
Si3    C54     1.884   1_455 S
Si4    O55     1.628   .     S
Si4    O56     1.683   .     S
Si4    O69     1.641   .     S
Si4    O91     1.578   .     S
Si5    C57     1.870   .     S
Si5    C58     1.874   .     S
Si5    C59     1.875   .     S
Si5    O60     1.616   .     S
Si6    O60     1.587   .     S
Si6    C61     1.891   .     S
Si6    O71     1.639   1_554 S
Si6    O113    1.627   1_554 S
Si7    O62     1.587   .     S
Si7    C63     1.887   .     S
Si7    O66     1.618   .     S
Si7    C106    1.945   .     S
Si8    C64     1.857   .     S
Si8    O72     1.566   .     S
Si8    O159    1.660   1_455 S
Si8    O174    1.615   1_455 S
Si9    C65     1.868   .     S
Si9    O66     1.576   .     S
Si9    C67     1.903   .     S
Si9    O73     1.563   .     S
Si10   O68     1.624   .     S
Si10   O69     1.580   .     S
Si10   C70     1.819   .     S
Si10   O111    1.616   .     S
Si11   O71     1.643   .     S
Si11   O78     1.589   .     S
Si11   O155    1.614   1_455 S
Si11   O170    1.588   1_455 S
Si12   O72     1.607   .     S
Si12   O73     1.562   .     S
Si12   C74     1.863   .     S
Si12   O122    1.587   .     S
Si13   C75     1.802   .     S
Si13   O83     1.628   .     S
Si13   C76     1.869   1_455 S
Si13   C77     1.840   1_455 S
Si14   O78     1.637   .     S
Si14   C79     1.819   .     S
Si14   O84     1.624   .     S
Si14   O131    1.642   .     S
Si15   C80     1.858   .     S
Si15   O81     1.611   .     S
Si15   C82     1.840   1_455 S
Si15   O195    1.634   1_455 S
Si16   O83     1.604   .     S
Si16   O84     1.621   .     S
Si16   O85     1.626   .     S
Si16   O126    1.621   .     S
Si17   C86     1.887   .     S
Si17   O104    1.625   .     S
Si17   O98     1.536   1_554 S
Si17   C145    1.941   1_554 S
Si18   C87     1.891   .     S
Si18   O93     1.597   .     S
Si18   C88     1.806   1_545 S
Si18   C125    1.897   1_545 S
Si19   C89     1.843   .     S
Si19   C90     1.820   .     S
Si19   O91     1.577   .     S
Si19   O100    1.591   .     S
Si20   C92     1.848   .     S
Si20   O93     1.579   .     S
Si20   C94     1.841   .     S
Si20   C95     1.839   .     S
Si21   O101    1.619   .     S
Si21   O142    1.557   .     S
Si21   C96     1.848   1_545 S
Si21   O133    1.567   1_545 S
Si22   O97     1.619   .     S
Si22   O98     1.597   .     S
Si22   C99     1.822   .     S
Si22   O109    1.623   .     S
Si23   O100    1.599   .     S
Si23   O101    1.558   .     S
Si23   C102    1.814   .     S
Si23   O110    1.560   .     S
Si24   C103    1.886   .     S
Si24   O104    1.549   .     S
Si24   O105    1.580   .     S
Si24   C152    1.850   .     S
Si25   O105    1.570   .     S
Si25   O117    1.591   .     S
Si25   O112    1.632   1_554 S
Si25   O173    1.588   1_554 S
Si26   C107    1.925   .     S
Si26   C108    1.835   .     S
Si26   O114    1.627   .     S
Si26   O119    1.585   .     S
Si27   O109    1.588   .     S
Si27   O110    1.571   .     S
Si27   O115    1.580   .     S
Si27   O171    1.569   .     S
Si28   O111    1.612   .     S
Si28   O112    1.614   .     S
Si28   O113    1.635   .     S
Si28   O127    1.621   .     S
Si29   O114    1.603   .     S
Si29   O115    1.536   .     S
Si29   O128    1.527   .     S
Si29   O162    1.575   .     S
Si30   C116    1.914   .     S
Si30   O117    1.547   .     S
Si30   C118    1.893   .     S
Si30   C182    1.903   .     S
Si31   O119    1.647   .     S
Si31   C120    1.883   .     S
Si31   C121    1.846   .     S
Si31   C187    1.908   .     S
Si32   O122    1.556   .     S
Si32   C123    1.839   .     S
Si32   C124    1.871   .     S
Si32   O126    1.615   .     S
Si33   O127    1.584   .     S
Si33   O128    1.588   .     S
Si33   C129    1.857   .     S
Si33   C130    1.818   .     S
Si34   O131    1.603   .     S
Si34   C132    1.811   .     S
Si34   O133    1.590   .     S
Si34   C134    1.804   .     S
Si35   C135    1.921   .     S
Si35   C136    1.890   .     S
Si35   C137    1.802   1_545 S
Si35   O185    1.582   1_545 S
Si36   C138    1.894   .     S
Si36   C139    1.876   .     S
Si36   C141    1.860   1_545 S
Si36   O190    1.623   1_545 S
Si37   O142    1.563   .     S
Si37   C143    1.887   .     S
Si37   C144    1.860   .     S
Si37   O168    1.656   .     S
Si38   O146    1.591   .     S
Si38   C147    1.860   .     S
Si38   C148    1.871   .     S
Si38   O169    1.603   .     S
Si39   C149    1.856   .     S
Si39   C150    1.865   .     S
Si39   C151    1.818   .     S
Si39   O156    1.610   .     S
Si40   C153    1.834   .     S
Si40   C154    1.859   .     S
Si40   O164    1.599   .     S
Si40   O177    1.641   .     S
Si41   O156    1.611   .     S
Si41   C178    1.794   .     S
Si41   O155    1.610   1_554 S
Si41   O172    1.608   1_554 S
Si42   C157    1.830   .     S
Si42   C158    1.857   .     S
Si42   O159    1.625   .     S
Si42   C165    1.850   .     S
Si43   C160    1.876   .     S
Si43   C161    1.771   .     S
Si43   O162    1.572   .     S
Si43   O175    1.586   .     S
Si44   C163    1.957   .     S
Si44   O164    1.627   .     S
Si44   C166    1.859   .     S
Si44   C167    1.877   .     S
Si45   O168    1.579   .     S
Si45   O169    1.647   .     S
Si45   O170    1.563   .     S
Si45   O176    1.611   .     S
Si46   O171    1.558   .     S
Si46   O172    1.605   .     S
Si46   O173    1.661   .     S
Si46   O192    1.644   .     S
Si47   O174    1.591   .     S
Si47   O175    1.583   .     S
Si47   O176    1.606   .     S
Si47   O193    1.612   .     S
Si48   O177    1.564   .     S
Si48   C179    1.898   .     S
Si48   C180    1.938   .     S
Si48   C181    1.892   .     S
Si49   C183    1.879   .     S
Si49   C184    1.781   .     S
Si49   O185    1.579   .     S
Si49   C186    1.849   .     S
Si50   C188    1.846   .     S
Si50   C189    1.893   .     S
Si50   O190    1.620   .     S
Si50   C191    1.845   .     S
Si51   O192    1.613   .     S
Si51   O193    1.589   .     S
Si51   C194    1.880   .     S
Si51   O195    1.548   .     S
C52    H196    1.091   .     S
C52    H197    1.082   .     S
C52    H198    1.137   .     S
C53    H199    1.112   .     S
C53    H200    1.133   .     S
C53    H201    1.111   .     S
C53    Si3     1.812   1_655 S
C54    H202    1.125   .     S
C54    H203    1.053   .     S
C54    H204    1.137   .     S
C54    Si3     1.884   1_655 S
C57    H205    1.062   .     S
C57    H206    1.139   .     S
C57    H207    1.086   .     S
C58    H208    1.156   .     S
C58    H209    1.070   .     S
C58    H210    1.096   .     S
C59    H211    1.058   .     S
C59    H212    1.072   .     S
C59    H213    1.075   .     S
C61    H214    1.132   .     S
C61    H215    1.100   .     S
C61    H216    1.128   .     S
C63    H217    1.114   .     S
C63    H218    1.097   .     S
C63    H219    1.121   .     S
C64    H220    1.052   .     S
C64    H221    1.138   .     S
C64    H222    1.144   .     S
C65    H223    1.087   .     S
C65    H224    1.164   .     S
C65    H225    1.076   .     S
C67    H226    1.061   .     S
C67    H227    1.147   .     S
C67    H228    1.178   .     S
C70    H229    1.100   .     S
C70    H230    1.098   .     S
C70    H231    1.045   .     S
O71    Si6     1.639   1_556 S
C74    H232    1.113   .     S
C74    H233    1.073   .     S
C74    H234    1.110   .     S
C75    H235    1.091   .     S
C75    H236    1.094   .     S
C75    H237    1.088   .     S
C76    H238    1.103   .     S
C76    H239    1.115   .     S
C76    H240    1.114   .     S
C76    Si13    1.869   1_655 S
C77    H241    1.091   .     S
C77    H242    1.077   .     S
C77    H243    1.086   .     S
C77    Si13    1.840   1_655 S
C79    H244    1.087   .     S
C79    H245    1.089   .     S
C79    H246    1.093   .     S
C80    H247    1.114   .     S
C80    H248    1.137   .     S
C80    H249    1.096   .     S
O81    Si2     1.591   1_565 S
C82    H250    1.056   .     S
C82    H251    1.120   .     S
C82    H252    1.079   .     S
C82    Si15    1.840   1_655 S
O85    Si2     1.607   1_565 S
C86    H253    1.140   .     S
C86    H254    1.072   .     S
C86    H255    1.114   .     S
C87    H256    1.150   .     S
C87    H257    1.116   .     S
C87    H258    1.136   .     S
C88    H259    1.152   .     S
C88    H260    1.109   .     S
C88    H261    1.166   .     S
C88    Si18    1.806   1_565 S
C89    H262    1.132   .     S
C89    H263    1.090   .     S
C89    H264    1.148   .     S
C90    H265    1.072   .     S
C90    H266    1.081   .     S
C90    H267    1.162   .     S
C92    H268    1.108   .     S
C92    H269    1.059   .     S
C92    H270    1.139   .     S
C94    H271    1.050   .     S
C94    H272    1.097   .     S
C94    H273    1.131   .     S
C95    H274    1.121   .     S
C95    H275    1.131   .     S
C95    H276    1.125   .     S
C96    H277    1.088   .     S
C96    H278    1.050   .     S
C96    H279    1.094   .     S
C96    Si21    1.848   1_565 S
O98    Si17    1.536   1_556 S
C99    H280    1.057   .     S
C99    H281    1.103   .     S
C99    H282    1.162   .     S
C102   H283    1.107   .     S
C102   H284    1.097   .     S
C102   H285    1.090   .     S
C103   H286    1.102   .     S
C103   H287    1.103   .     S
C103   H288    1.105   .     S
C106   H289    1.079   .     S
C106   H290    1.110   .     S
C106   H291    1.159   .     S
C107   H292    1.149   .     S
C107   H293    1.123   .     S
C107   H294    1.085   .     S
C108   H295    1.100   .     S
C108   H296    1.136   .     S
C108   H297    1.077   .     S
O112   Si25    1.632   1_556 S
O113   Si6     1.627   1_556 S
C116   H298    1.034   .     S
C116   H299    1.119   .     S
C116   H300    1.138   .     S
C118   H301    1.118   .     S
C118   H302    1.108   .     S
C118   H303    1.108   .     S
C120   H304    1.087   .     S
C120   H305    1.135   .     S
C120   H306    1.099   .     S
C121   H307    1.086   .     S
C121   H308    1.079   .     S
C121   H309    1.141   .     S
C123   H310    1.056   .     S
C123   H311    1.111   .     S
C123   H312    1.155   .     S
C124   H313    1.084   .     S
C124   H314    1.133   .     S
C124   H315    1.139   .     S
C125   H316    1.085   .     S
C125   H317    1.043   .     S
C125   H318    1.089   .     S
C125   Si18    1.897   1_565 S
C129   H319    1.145   .     S
C129   H320    1.119   .     S
C129   H321    1.106   .     S
C130   H322    1.114   .     S
C130   H323    1.098   .     S
C130   H324    1.110   .     S
C132   H325    1.110   .     S
C132   H326    1.142   .     S
C132   H327    1.117   .     S
O133   Si21    1.567   1_565 S
C134   H328    1.125   .     S
C134   H329    1.103   .     S
C134   H330    1.174   .     S
C135   H331    1.111   .     S
C135   H332    1.118   .     S
C135   H333    1.100   .     S
C136   H334    1.121   .     S
C136   H335    1.080   .     S
C136   H336    1.109   .     S
C137   H337    1.136   .     S
C137   H338    1.097   .     S
C137   H339    1.077   .     S
C137   Si35    1.802   1_565 S
C138   H340    1.138   .     S
C138   H341    1.107   .     S
C138   H342    1.077   .     S
C139   H343    1.144   .     S
C139   H344    1.077   .     S
C139   H345    1.145   .     S
C140   H346    1.081   .     S
C140   H347    1.135   .     S
C140   H348    1.088   .     S
C140   Si1     1.902   1_655 S
C141   H349    1.114   .     S
C141   H350    1.109   .     S
C141   H351    1.171   .     S
C141   Si36    1.860   1_565 S
C143   H352    1.110   .     S
C143   H353    1.112   .     S
C143   H354    1.103   .     S
C144   H355    1.108   .     S
C144   H356    1.104   .     S
C144   H357    1.120   .     S
C145   H358    1.138   .     S
C145   H359    1.101   .     S
C145   H360    1.111   .     S
C145   Si17    1.941   1_556 S
O146   Si1     1.618   1_655 S
C147   H361    1.120   .     S
C147   H362    1.125   .     S
C147   H363    1.063   .     S
C148   H364    1.109   .     S
C148   H365    1.118   .     S
C148   H366    1.120   .     S
C149   H367    1.084   .     S
C149   H368    1.141   .     S
C149   H369    1.082   .     S
C150   H370    1.151   .     S
C150   H371    1.030   .     S
C150   H372    1.082   .     S
C151   H373    1.068   .     S
C151   H374    1.135   .     S
C151   H375    1.131   .     S
C152   H376    1.101   .     S
C152   H377    1.180   .     S
C152   H378    1.050   .     S
C153   H379    1.094   .     S
C153   H380    1.139   .     S
C153   H381    1.179   .     S
C154   H382    1.069   .     S
C154   H383    1.115   .     S
C154   H384    1.111   .     S
O155   Si11    1.614   1_655 S
O155   Si41    1.610   1_556 S
C157   H385    1.146   .     S
C157   H386    1.126   .     S
C157   H387    1.116   .     S
C158   H388    1.080   .     S
C158   H389    1.116   .     S
C158   H390    1.069   .     S
O159   Si8     1.660   1_655 S
C160   H391    1.108   .     S
C160   H392    1.071   .     S
C160   H393    1.099   .     S
C161   H394    1.108   .     S
C161   H395    1.082   .     S
C161   H396    1.098   .     S
C163   H397    1.196   .     S
C163   H398    1.117   .     S
C163   H399    1.107   .     S
C165   H400    1.080   .     S
C165   H401    1.062   .     S
C165   H402    1.128   .     S
C166   H403    1.097   .     S
C166   H404    1.064   .     S
C166   H405    1.149   .     S
C167   H406    1.106   .     S
C167   H407    1.144   .     S
C167   H408    1.089   .     S
O170   Si11    1.588   1_655 S
O172   Si41    1.608   1_556 S
O173   Si25    1.588   1_556 S
O174   Si8     1.615   1_655 S
C178   H409    1.116   .     S
C178   H410    1.118   .     S
C178   H411    1.054   .     S
C179   H412    1.171   .     S
C179   H413    1.123   .     S
C179   H414    1.121   .     S
C180   H415    1.104   .     S
C180   H416    1.135   .     S
C180   H417    1.074   .     S
C181   H418    1.097   .     S
C181   H419    1.157   .     S
C181   H420    1.083   .     S
C182   H421    1.130   .     S
C182   H422    1.140   .     S
C182   H423    1.075   .     S
C183   H424    1.104   .     S
C183   H425    1.061   .     S
C183   H426    1.158   .     S
C184   H427    1.133   .     S
C184   H428    1.159   .     S
C184   H429    1.113   .     S
O185   Si35    1.582   1_565 S
C186   H430    1.096   .     S
C186   H431    1.072   .     S
C186   H432    1.111   .     S
C187   H433    1.129   .     S
C187   H434    1.095   .     S
C187   H435    1.105   .     S
C188   H436    1.083   .     S
C188   H437    1.082   .     S
C188   H438    1.099   .     S
C189   H439    1.114   .     S
C189   H440    1.105   .     S
C189   H441    1.077   .     S
O190   Si36    1.623   1_565 S
C191   H442    1.127   .     S
C191   H443    1.146   .     S
C191   H444    1.126   .     S
C194   H445    1.090   .     S
C194   H446    1.056   .     S
C194   H447    1.076   .     S
O195   Si15    1.634   1_655 S
