data_333-7-11-18-15-30-4
_audit_creation_date              2025-03-07
_audit_creation_method            'Materials Studio'
_symmetry_space_group_name_H-M    'P1'
_symmetry_Int_Tables_number       1
_symmetry_cell_setting            triclinic
loop_
_symmetry_equiv_pos_as_xyz
  x,y,z
_cell_length_a                    18.5769
_cell_length_b                    20.6018
_cell_length_c                    17.7449
_cell_angle_alpha                 94.8359
_cell_angle_beta                  83.5376
_cell_angle_gamma                 125.7974
loop_
_atom_site_label
_atom_site_type_symbol
_atom_site_fract_x
_atom_site_fract_y
_atom_site_fract_z
_atom_site_U_iso_or_equiv
_atom_site_adp_type
_atom_site_occupancy
Si1    Si    0.09287  -0.05393   0.23371   0.00000  Uiso   1.00
Si2    Si   -0.00994   0.14914   0.11567   0.00000  Uiso   1.00
Si3    Si    0.16707   0.22741   0.19057   0.00000  Uiso   1.00
Si4    Si    0.11909  -0.10009   0.80360   0.00000  Uiso   1.00
Si5    Si    0.15858   0.01320   0.67321   0.00000  Uiso   1.00
Si6    Si    0.07916   0.16710  -0.04857   0.00000  Uiso   1.00
Si7    Si    0.21603   0.34117  -0.06546   0.00000  Uiso   1.00
Si8    Si    0.02093   0.46417   0.49799   0.00000  Uiso   1.00
Si9    Si    0.18451   0.64210   0.30672   0.00000  Uiso   1.00
Si10   Si    0.16104   0.42122   0.85001   0.00000  Uiso   1.00
Si11   Si   -0.10372   0.88704   0.27005   0.00000  Uiso   1.00
Si12   Si    0.12403   0.64897   0.47685   0.00000  Uiso   1.00
Si13   Si   -0.10725   0.63614   0.72298   0.00000  Uiso   1.00
Si14   Si    0.05096   0.74474   0.45360   0.00000  Uiso   1.00
Si15   Si    0.13431   0.69769   0.88239   0.00000  Uiso   1.00
Si16   Si   -0.01697   0.85616   0.94075   0.00000  Uiso   1.00
Si17   Si    0.09152   0.74178   0.74138   0.00000  Uiso   1.00
Si18   Si    0.60700   0.10475   0.11119   0.00000  Uiso   1.00
Si19   Si    0.51607   0.20874   0.30207   0.00000  Uiso   1.00
Si20   Si    0.29651  -0.00451   0.87120   0.00000  Uiso   1.00
Si21   Si    0.61762   0.25448   0.73335   0.00000  Uiso   1.00
Si22   Si    0.56846   0.47070   0.06753   0.00000  Uiso   1.00
Si23   Si    0.32409   0.65564   0.19292   0.00000  Uiso   1.00
Si24   Si    0.42544   0.26366   0.42022   0.00000  Uiso   1.00
Si25   Si    0.36618   0.60506   0.47900   0.00000  Uiso   1.00
Si26   Si    0.36716   0.36043   0.82945   0.00000  Uiso   1.00
Si27   Si    0.52006   0.75321   0.13878   0.00000  Uiso   1.00
Si28   Si    0.50605   0.77348   0.41334   0.00000  Uiso   1.00
Si29   Si    0.22335   0.75928   0.60754   0.00000  Uiso   1.00
Si30   Si    0.52694   0.90062   0.31848   0.00000  Uiso   1.00
Si31   Si    0.38014   0.78551   0.67391   0.00000  Uiso   1.00
Si32   Si    0.82399  -0.01238   0.08989   0.00000  Uiso   1.00
Si33   Si    0.69203   0.25593   0.21629   0.00000  Uiso   1.00
Si34   Si    0.85393   0.13508   0.35804   0.00000  Uiso   1.00
Si35   Si    0.72288   0.24035   0.60046   0.00000  Uiso   1.00
Si36   Si    0.81526   0.25128   0.31428   0.00000  Uiso   1.00
Si37   Si    0.80800  -0.12580   0.75053   0.00000  Uiso   1.00
Si38   Si    0.87795   0.23089   0.86062   0.00000  Uiso   1.00
Si39   Si    0.81871   0.39296   0.10999   0.00000  Uiso   1.00
Si40   Si    0.64580   0.59110   0.19967   0.00000  Uiso   1.00
Si41   Si    0.82790   0.34645   0.46247   0.00000  Uiso   1.00
Si42   Si    0.79147   0.46787   0.43124   0.00000  Uiso   1.00
Si43   Si    1.02472   0.32420   0.73570   0.00000  Uiso   1.00
Si44   Si    1.00279   0.44336   0.67010   0.00000  Uiso   1.00
Si45   Si    0.79849   0.75885   0.15170   0.00000  Uiso   1.00
Si46   Si    0.66973   0.89930   0.21854   0.00000  Uiso   1.00
Si47   Si    0.81847   0.84733   0.00999   0.00000  Uiso   1.00
Si48   Si    0.79175   0.54442   0.58009   0.00000  Uiso   1.00
Si49   Si    0.54855   0.85458   0.57024   0.00000  Uiso   1.00
Si50   Si    0.81096   0.96853   0.32940   0.00000  Uiso   1.00
Si51   Si    0.68619   0.76721   0.88676   0.00000  Uiso   1.00
C52    C     0.18264   0.03066   0.16538   0.00000  Uiso   1.00
C53    C     0.12422  -0.02951   0.33670   0.00000  Uiso   1.00
C54    C     0.09099   0.85261   0.20573   0.00000  Uiso   1.00
O55    O     0.06776   0.16782   0.16494   0.00000  Uiso   1.00
C56    C     0.17453   0.19493   0.28059   0.00000  Uiso   1.00
C57    C     0.18754   0.33069   0.21990   0.00000  Uiso   1.00
C58    C     0.25472   0.24086   0.11756   0.00000  Uiso   1.00
C59    C     0.05409  -0.03760   0.61965   0.00000  Uiso   1.00
O60    O     0.14497  -0.03079   0.74843   0.00000  Uiso   1.00
C61    C     0.21720   0.12439   0.68895   0.00000  Uiso   1.00
C62    C     0.24012   0.01514   0.59721   0.00000  Uiso   1.00
O63    O     0.01854   0.16509   0.02587   0.00000  Uiso   1.00
C64    C     0.02726   0.14519  -0.13741   0.00000  Uiso   1.00
O65    O     0.17133   0.25040  -0.05382   0.00000  Uiso   1.00
C66    C     0.23576   0.39576   0.03233   0.00000  Uiso   1.00
C67    C     0.09965   0.45163   0.43892   0.00000  Uiso   1.00
C68    C     0.15570   0.70276   0.26455   0.00000  Uiso   1.00
C69    C     0.09592   0.53384   0.28295   0.00000  Uiso   1.00
O70    O     0.15619   0.35168   0.89006   0.00000  Uiso   1.00
C71    C     1.10755   0.45818   0.91855   0.00000  Uiso   1.00
O72    O    -0.00464   0.92795   0.23296   0.00000  Uiso   1.00
O73    O     0.05803   0.55756   0.50455   0.00000  Uiso   1.00
O74    O     0.17867   0.65365   0.39610   0.00000  Uiso   1.00
C75    C    -0.11678   0.72243   0.73854   0.00000  Uiso   1.00
C76    C     0.81449   0.56571   0.80026   0.00000  Uiso   1.00
C77    C    -0.13478   0.82311   0.35077   0.00000  Uiso   1.00
C78    C    -0.05361   0.69454   0.39894   0.00000  Uiso   1.00
O79    O     0.06724   0.68099   0.46661   0.00000  Uiso   1.00
C80    C     0.02472   0.77599   0.54481   0.00000  Uiso   1.00
C81    C     0.15158   0.82805   0.40132   0.00000  Uiso   1.00
C82    C     0.27717   0.50685   0.82398   0.00000  Uiso   1.00
C83    C     0.02699   0.59599   0.89401   0.00000  Uiso   1.00
C84    C     0.22684   0.68678   0.87256   0.00000  Uiso   1.00
C85    C     0.15470   0.76116   0.96682   0.00000  Uiso   1.00
C86    C     0.06419   0.91434   1.01436   0.00000  Uiso   1.00
O87    O     0.03515   0.88425   0.85723   0.00000  Uiso   1.00
C88    C     0.95118   0.75461   0.95186   0.00000  Uiso   1.00
O89    O    -0.01073   0.66886   0.74317   0.00000  Uiso   1.00
O90    O     0.13720   0.73518   0.80550   0.00000  Uiso   1.00
O91    O     0.09526   0.82233   0.75187   0.00000  Uiso   1.00
C92    C     0.63370   0.10286   0.00733   0.00000  Uiso   1.00
C93    C     0.48348   1.04354   0.12918   0.00000  Uiso   1.00
C94    C     0.65678   1.06422   0.15526   0.00000  Uiso   1.00
C95    C     0.43627   0.18504   0.22430   0.00000  Uiso   1.00
C96    C     0.48937   0.11379   0.33649   0.00000  Uiso   1.00
O97    O     0.19730  -0.06985   0.85219   0.00000  Uiso   1.00
C98    C     0.35548   0.03168   0.77350   0.00000  Uiso   1.00
C99    C     0.32120   0.08575   0.93557   0.00000  Uiso   1.00
C100   C     0.34877  -0.04344   0.90907   0.00000  Uiso   1.00
C101   C     0.50712   0.21974   0.70419   0.00000  Uiso   1.00
C102   C     0.60337   0.17190   0.78090   0.00000  Uiso   1.00
C103   C     0.65523   0.33992   0.80329   0.00000  Uiso   1.00
C104   C     0.54973   0.38681   0.11195   0.00000  Uiso   1.00
C105   C     0.64020   0.47998  -0.02412   0.00000  Uiso   1.00
C106   C     0.46914   0.46243   0.04665   0.00000  Uiso   1.00
C107   C     0.09512   0.08881  -0.03063   0.00000  Uiso   1.00
C108   C     0.29086   0.68759   0.11397   0.00000  Uiso   1.00
C109   C     0.28723   0.54969   0.17882   0.00000  Uiso   1.00
O110   O     0.28049   0.66689   0.27271   0.00000  Uiso   1.00
C111   C     0.30925   0.18100   0.40383   0.00000  Uiso   1.00
O112   O     0.49539   0.25071   0.37334   0.00000  Uiso   1.00
C113   C     0.44827   0.35956   0.39331   0.00000  Uiso   1.00
C114   C     0.44167   0.26666   0.52178   0.00000  Uiso   1.00
C115   C     0.31951   0.52990   0.39847   0.00000  Uiso   1.00
C116   C     0.44823   0.58767   0.50756   0.00000  Uiso   1.00
C117   C     0.27614   0.58164   0.55152   0.00000  Uiso   1.00
C118   C     0.31941   0.34206   0.73587   0.00000  Uiso   1.00
C119   C     0.36688   0.27399   0.85862   0.00000  Uiso   1.00
C120   C     0.48695   0.44296   0.81626   0.00000  Uiso   1.00
O121   O     0.31117   0.37743   0.89443   0.00000  Uiso   1.00
O122   O     0.43141   0.70918   0.18950   0.00000  Uiso   1.00
C123   C     0.53496   0.67798   0.08954   0.00000  Uiso   1.00
C124   C     0.52005   0.81261   0.06730   0.00000  Uiso   1.00
O125   O     0.41505   0.69594   0.45020   0.00000  Uiso   1.00
C126   C     0.57357   0.73901   0.36475   0.00000  Uiso   1.00
O127   O     0.19829   0.70279   0.53716   0.00000  Uiso   1.00
C128   C     0.28706   0.85957   0.57280   0.00000  Uiso   1.00
O129   O     0.13517   0.73809   0.66198   0.00000  Uiso   1.00
C130   C     0.42944   0.88157   0.27628   0.00000  Uiso   1.00
O131   O     0.48590   0.81480   0.35539   0.00000  Uiso   1.00
C132   C     0.55637   0.97237   0.39991   0.00000  Uiso   1.00
O133   O     0.28369   0.74650   0.65155   0.00000  Uiso   1.00
C134   C     0.38409   0.70908   0.72192   0.00000  Uiso   1.00
C135   C     0.41968   0.88057   0.73231   0.00000  Uiso   1.00
C136   C     0.79879   0.02306   0.00851   0.00000  Uiso   1.00
O137   O     0.90586   0.06186   0.12852   0.00000  Uiso   1.00
O138   O     0.65023   0.19407   0.14592   0.00000  Uiso   1.00
O139   O     0.62008   0.26038   0.27150   0.00000  Uiso   1.00
C140   C     0.97640   0.21128   0.36693   0.00000  Uiso   1.00
C141   C     0.62604   0.16133   0.54836   0.00000  Uiso   1.00
C142   C     0.76254   0.19004   0.64958   0.00000  Uiso   1.00
O143   O     0.68562   0.27782   0.66069   0.00000  Uiso   1.00
C144   C     0.96141   0.21854   0.15076   0.00000  Uiso   1.00
C145   C     0.91525   0.33572   0.26811   0.00000  Uiso   1.00
O146   O     0.73337   0.22650   0.26656   0.00000  Uiso   1.00
O147   O     0.81781   0.17437   0.31425   0.00000  Uiso   1.00
C148   C     0.77637  -0.05337   0.76402   0.00000  Uiso   1.00
C149   C     0.92273  -0.06982   0.78538   0.00000  Uiso   1.00
C150   C     0.80203   0.83254   0.64987   0.00000  Uiso   1.00
C151   C     0.78577   0.12631   0.84017   0.00000  Uiso   1.00
C152   C     0.91272   0.23496   0.95912   0.00000  Uiso   1.00
C153   C     0.84737   0.30518   0.85991   0.00000  Uiso   1.00
O154   O     0.76367   0.34349   0.18622   0.00000  Uiso   1.00
C155   C     0.92697   0.40427   0.08788   0.00000  Uiso   1.00
C156   C     0.74482   0.34506   0.02911   0.00000  Uiso   1.00
C157   C     0.84030   0.49370   0.12714   0.00000  Uiso   1.00
O158   O     0.62759   0.54983   0.11667   0.00000  Uiso   1.00
C159   C     0.53544   0.54472   0.25425   0.00000  Uiso   1.00
O160   O     0.79645   0.30783   0.54707   0.00000  Uiso   1.00
O161   O     0.79830   0.27328   0.40088   0.00000  Uiso   1.00
O162   O     0.93416   0.41270   0.45625   0.00000  Uiso   1.00
C163   C     0.86999   0.51238   0.34378   0.00000  Uiso   1.00
C164   C     0.70955   0.56650   0.25546   0.00000  Uiso   1.00
C165   C     0.67858   0.43442   0.41256   0.00000  Uiso   1.00
O166   O     0.77838   0.38471   0.44886   0.00000  Uiso   1.00
O167   O     0.95884   0.25914   0.79804   0.00000  Uiso   1.00
C168   C     1.04281   0.27875   0.64820   0.00000  Uiso   1.00
O169   O     1.11472   0.38743   0.77292   0.00000  Uiso   1.00
O170   O     1.00625   0.43120   0.58018   0.00000  Uiso   1.00
C171   C     0.92421   0.47009   0.70489   0.00000  Uiso   1.00
O172   O     0.98293   0.36742   0.71179   0.00000  Uiso   1.00
C173   C     1.11025   0.53824   0.69769   0.00000  Uiso   1.00
O174   O     0.70506   0.68694   0.18351   0.00000  Uiso   1.00
C175   C     0.88341   0.73836   0.14730   0.00000  Uiso   1.00
O176   O     0.83085   0.83496   0.20624   0.00000  Uiso   1.00
O177   O     0.59958   0.80791   0.19363   0.00000  Uiso   1.00
O178   O     0.73470   0.94635   0.14642   0.00000  Uiso   1.00
O179   O     0.60753   0.92711   0.25545   0.00000  Uiso   1.00
O180   O     0.90057   0.86087   0.95314   0.00000  Uiso   1.00
O181   O     0.79411   0.78083   0.06951   0.00000  Uiso   1.00
O182   O     0.84890   0.92690   0.05878   0.00000  Uiso   1.00
C183   C     0.68954   0.45978   0.62477   0.00000  Uiso   1.00
O184   O     0.82357   0.52236   0.50403   0.00000  Uiso   1.00
O185   O     0.86653   0.59098   0.64143   0.00000  Uiso   1.00
O186   O     0.55426   0.83150   0.48351   0.00000  Uiso   1.00
C187   C     0.59688   0.81248   0.61892   0.00000  Uiso   1.00
C188   C     0.62163   0.96689   0.59420   0.00000  Uiso   1.00
C189   C     0.80583   1.11778   0.45900   0.00000  Uiso   1.00
O190   O     0.44793   0.81402   0.59707   0.00000  Uiso   1.00
O191   O     0.88403   0.95552   0.29725   0.00000  Uiso   1.00
O192   O     0.72856   0.90796   0.28128   0.00000  Uiso   1.00
C193   C     0.76358   0.61480   0.55492   0.00000  Uiso   1.00
C194   C     0.77145   0.93878   0.42754   0.00000  Uiso   1.00
O195   O     0.83825   1.05709   0.31581   0.00000  Uiso   1.00
C196   C     0.65585   0.66604   0.89583   0.00000  Uiso   1.00
O197   O     0.74033   0.81874   0.95980   0.00000  Uiso   1.00
O198   O     0.74923   0.80202   0.81001   0.00000  Uiso   1.00
C199   C     0.58445   0.76503   0.88610   0.00000  Uiso   1.00
H200   H     0.15053   0.05547   0.14479   0.00000  Uiso   1.00
H201   H     0.20466   0.00920   0.11826   0.00000  Uiso   1.00
H202   H     0.24416   0.08002   0.19431   0.00000  Uiso   1.00
H203   H     0.08089  -0.08057   0.37465   0.00000  Uiso   1.00
H204   H     0.10254   0.01071   0.34898   0.00000  Uiso   1.00
H205   H     0.19646   0.00052   0.33464   0.00000  Uiso   1.00
H206   H     0.15599   0.87278   0.21695   0.00000  Uiso   1.00
H207   H     0.07149   0.82668   0.14502   0.00000  Uiso   1.00
H208   H     0.04118   0.80370   0.24806   0.00000  Uiso   1.00
H209   H     0.24196   0.23735   0.30058   0.00000  Uiso   1.00
H210   H     0.16022   0.13528   0.27198   0.00000  Uiso   1.00
H211   H     0.11868   0.18291   0.32220   0.00000  Uiso   1.00
H212   H     0.17293   0.33484   0.28138   0.00000  Uiso   1.00
H213   H     0.14658   0.34233   0.19121   0.00000  Uiso   1.00
H214   H     0.25781   0.37637   0.21069   0.00000  Uiso   1.00
H215   H     0.24764   0.18355   0.09675   0.00000  Uiso   1.00
H216   H     0.31913   0.27742   0.14406   0.00000  Uiso   1.00
H217   H     0.24419   0.26700   0.07328   0.00000  Uiso   1.00
H218   H     0.00589  -0.09473   0.64345   0.00000  Uiso   1.00
H219   H     0.06991  -0.04170   0.55852   0.00000  Uiso   1.00
H220   H     0.03080  -0.00309   0.62555   0.00000  Uiso   1.00
H221   H     0.22784   0.15815   0.63872   0.00000  Uiso   1.00
H222   H     0.28265   0.15268   0.71299   0.00000  Uiso   1.00
H223   H     0.17832   0.13785   0.73312   0.00000  Uiso   1.00
H224   H     0.21321  -0.04760   0.58005   0.00000  Uiso   1.00
H225   H     0.30829   0.04105   0.61422   0.00000  Uiso   1.00
H226   H     0.23584   0.03621   0.54329   0.00000  Uiso   1.00
H227   H    -0.04139   0.08709  -0.13080   0.00000  Uiso   1.00
H228   H     0.07036   0.14423  -0.18384   0.00000  Uiso   1.00
H229   H     0.02471   0.19466  -0.14680   0.00000  Uiso   1.00
H230   H     0.27906   0.38945   0.06735   0.00000  Uiso   1.00
H231   H     0.16648   0.37379   0.06539   0.00000  Uiso   1.00
H232   H     0.27052   0.46091   0.02719   0.00000  Uiso   1.00
H233   H     0.12339   0.42884   0.47796   0.00000  Uiso   1.00
H234   H     0.15622   0.50812   0.41907   0.00000  Uiso   1.00
H235   H     0.06653   0.40295   0.39476   0.00000  Uiso   1.00
H236   H     0.21188   0.76980   0.27475   0.00000  Uiso   1.00
H237   H     0.08766   0.68039   0.29137   0.00000  Uiso   1.00
H238   H     0.14807   0.69012   0.20618   0.00000  Uiso   1.00
H239   H     0.12801   0.50130   0.26497   0.00000  Uiso   1.00
H240   H     0.06315   0.52684   0.23474   0.00000  Uiso   1.00
H241   H     0.05173   0.50645   0.33163   0.00000  Uiso   1.00
H242   H     1.09887   0.49775   0.89389   0.00000  Uiso   1.00
H243   H     1.14924   0.48441   0.96918   0.00000  Uiso   1.00
H244   H     1.03864   0.40655   0.93473   0.00000  Uiso   1.00
H245   H    -0.09575   0.74762   0.79405   0.00000  Uiso   1.00
H246   H    -0.18355   0.70703   0.73271   0.00000  Uiso   1.00
H247   H    -0.07306   0.76503   0.68869   0.00000  Uiso   1.00
H248   H     0.74587   0.54964   0.79592   0.00000  Uiso   1.00
H249   H     0.83773   0.59633   0.85535   0.00000  Uiso   1.00
H250   H     0.80674   0.50781   0.79492   0.00000  Uiso   1.00
H251   H    -0.17106   0.75974   0.32805   0.00000  Uiso   1.00
H252   H    -0.17695   0.83328   0.39103   0.00000  Uiso   1.00
H253   H    -0.07258   0.84251   0.37392   0.00000  Uiso   1.00
H254   H    -0.11174   0.63960   0.43031   0.00000  Uiso   1.00
H255   H    -0.03678   0.68135   0.34215   0.00000  Uiso   1.00
H256   H    -0.07788   0.73198   0.39897   0.00000  Uiso   1.00
H257   H    -0.04287   0.72780   0.57554   0.00000  Uiso   1.00
H258   H     0.02609   0.82999   0.53772   0.00000  Uiso   1.00
H259   H     0.07645   0.79795   0.58323   0.00000  Uiso   1.00
H260   H     0.21132   0.82770   0.40633   0.00000  Uiso   1.00
H261   H     0.16491   0.88350   0.43281   0.00000  Uiso   1.00
H262   H     0.14158   0.82193   0.34187   0.00000  Uiso   1.00
H263   H     0.31928   0.49784   0.85104   0.00000  Uiso   1.00
H264   H     0.27762   0.55984   0.84460   0.00000  Uiso   1.00
H265   H     0.29409   0.50826   0.76056   0.00000  Uiso   1.00
H266   H     0.02699   0.55466   0.84605   0.00000  Uiso   1.00
H267   H    -0.02409   0.60503   0.87995   0.00000  Uiso   1.00
H268   H     0.03086   0.58231   0.95035   0.00000  Uiso   1.00
H269   H     0.20432   0.62675   0.84467   0.00000  Uiso   1.00
H270   H     0.25008   0.69299   0.92854   0.00000  Uiso   1.00
H271   H     0.28740   0.73696   0.83759   0.00000  Uiso   1.00
H272   H     0.09361   0.73479   0.99719   0.00000  Uiso   1.00
H273   H     0.18373   0.82546   0.95752   0.00000  Uiso   1.00
H274   H     0.19038   0.75302   1.00614   0.00000  Uiso   1.00
H275   H     0.03388   0.92190   1.06754   0.00000  Uiso   1.00
H276   H     0.11120   0.97159   0.99223   0.00000  Uiso   1.00
H277   H     0.09873   0.89045   1.02169   0.00000  Uiso   1.00
H278   H     0.98233   0.74702   0.99881   0.00000  Uiso   1.00
H279   H     0.96536   0.72999   0.89802   0.00000  Uiso   1.00
H280   H     0.88086   0.71529   0.97021   0.00000  Uiso   1.00
H281   H     0.70254   0.12059  -0.00398   0.00000  Uiso   1.00
H282   H     0.62502   0.14178  -0.02513   0.00000  Uiso   1.00
H283   H     0.59107   0.03759  -0.00843   0.00000  Uiso   1.00
H284   H     0.45851   1.07077   0.09495   0.00000  Uiso   1.00
H285   H     0.46066   1.05039   0.18759   0.00000  Uiso   1.00
H286   H     0.45237   0.98187   0.11345   0.00000  Uiso   1.00
H287   H     0.72890   1.10304   0.13712   0.00000  Uiso   1.00
H288   H     0.63201   1.00701   0.13155   0.00000  Uiso   1.00
H289   H     0.64884   1.06550   0.21871   0.00000  Uiso   1.00
H290   H     0.40949   0.12545   0.20540   0.00000  Uiso   1.00
H291   H     0.47974   0.23045   0.18273   0.00000  Uiso   1.00
H292   H     0.37870   0.18989   0.23312   0.00000  Uiso   1.00
H293   H     0.50908   0.08911   0.29446   0.00000  Uiso   1.00
H294   H     0.41584   0.08122   0.34873   0.00000  Uiso   1.00
H295   H     0.52707   0.12258   0.38615   0.00000  Uiso   1.00
H296   H     0.33026   0.05564   0.74405   0.00000  Uiso   1.00
H297   H     0.33563  -0.02419   0.74225   0.00000  Uiso   1.00
H298   H     0.42720   0.06879   0.77521   0.00000  Uiso   1.00
H299   H     0.28703   0.06948   0.99331   0.00000  Uiso   1.00
H300   H     0.29637   0.11254   0.91177   0.00000  Uiso   1.00
H301   H     0.39535   0.12832   0.93889   0.00000  Uiso   1.00
H302   H     0.42070  -0.00983   0.89589   0.00000  Uiso   1.00
H303   H     0.31870  -0.10454   0.87979   0.00000  Uiso   1.00
H304   H     0.33076  -0.04707   0.97258   0.00000  Uiso   1.00
H305   H     0.48682   0.17299   0.65665   0.00000  Uiso   1.00
H306   H     0.50485   0.26723   0.67918   0.00000  Uiso   1.00
H307   H     0.46217   0.19601   0.75673   0.00000  Uiso   1.00
H308   H     0.67106   0.19257   0.79705   0.00000  Uiso   1.00
H309   H     0.57224   0.11653   0.74415   0.00000  Uiso   1.00
H310   H     0.55367   0.15426   0.83266   0.00000  Uiso   1.00
H311   H     0.66417   0.39031   0.77193   0.00000  Uiso   1.00
H312   H     0.71603   0.35907   0.82814   0.00000  Uiso   1.00
H313   H     0.61104   0.32897   0.85536   0.00000  Uiso   1.00
H314   H     0.61223   0.39613   0.12752   0.00000  Uiso   1.00
H315   H     0.51662   0.33852   0.07013   0.00000  Uiso   1.00
H316   H     0.50434   0.36997   0.16146   0.00000  Uiso   1.00
H317   H     0.60456   0.42883  -0.06299   0.00000  Uiso   1.00
H318   H     0.69153   0.47334  -0.00921   0.00000  Uiso   1.00
H319   H     0.66942   0.53833  -0.05157   0.00000  Uiso   1.00
H320   H     0.42434   0.40068   0.01816   0.00000  Uiso   1.00
H321   H     0.48600   0.50989   0.00883   0.00000  Uiso   1.00
H322   H     0.42951   0.46240   0.09773   0.00000  Uiso   1.00
H323   H     0.03135   0.03405  -0.01220   0.00000  Uiso   1.00
H324   H     0.13681   0.10813   0.01655   0.00000  Uiso   1.00
H325   H     0.12499   0.07618  -0.08045   0.00000  Uiso   1.00
H326   H     0.32151   0.68548   0.05641   0.00000  Uiso   1.00
H327   H     0.31264   0.74817   0.12928   0.00000  Uiso   1.00
H328   H     0.22270   0.65413   0.11234   0.00000  Uiso   1.00
H329   H     0.23025   0.51524   0.14950   0.00000  Uiso   1.00
H330   H     0.27308   0.51641   0.22973   0.00000  Uiso   1.00
H331   H     0.33848   0.54967   0.14355   0.00000  Uiso   1.00
H332   H     0.26263   0.19420   0.42992   0.00000  Uiso   1.00
H333   H     0.28833   0.12424   0.43323   0.00000  Uiso   1.00
H334   H     0.29709   0.16733   0.34073   0.00000  Uiso   1.00
H335   H     0.51135   0.40923   0.41357   0.00000  Uiso   1.00
H336   H     0.39769   0.37012   0.41989   0.00000  Uiso   1.00
H337   H     0.46322   0.36571   0.33015   0.00000  Uiso   1.00
H338   H     0.38312   0.25376   0.55952   0.00000  Uiso   1.00
H339   H     0.50059   0.32583   0.54111   0.00000  Uiso   1.00
H340   H     0.45665   0.22399   0.53057   0.00000  Uiso   1.00
H341   H     0.27135   0.46945   0.41670   0.00000  Uiso   1.00
H342   H     0.37254   0.52589   0.36443   0.00000  Uiso   1.00
H343   H     0.28785   0.54330   0.36020   0.00000  Uiso   1.00
H344   H     0.40688   0.52227   0.52288   0.00000  Uiso   1.00
H345   H     0.47906   0.63111   0.55730   0.00000  Uiso   1.00
H346   H     0.50182   0.59675   0.46001   0.00000  Uiso   1.00
H347   H     0.24234   0.52012   0.56894   0.00000  Uiso   1.00
H348   H     0.22970   0.58684   0.52681   0.00000  Uiso   1.00
H349   H     0.30487   0.62779   0.59810   0.00000  Uiso   1.00
H350   H     0.32849   0.39444   0.71929   0.00000  Uiso   1.00
H351   H     0.24604   0.29523   0.73525   0.00000  Uiso   1.00
H352   H     0.35286   0.32735   0.68595   0.00000  Uiso   1.00
H353   H     0.29809   0.21946   0.88099   0.00000  Uiso   1.00
H354   H     0.40176   0.28409   0.91247   0.00000  Uiso   1.00
H355   H     0.39739   0.25751   0.81147   0.00000  Uiso   1.00
H356   H     0.53276   0.43355   0.84654   0.00000  Uiso   1.00
H357   H     0.48989   0.49589   0.83780   0.00000  Uiso   1.00
H358   H     0.51189   0.45389   0.75714   0.00000  Uiso   1.00
H359   H     0.60166   0.71075   0.05778   0.00000  Uiso   1.00
H360   H     0.48014   0.64066   0.05131   0.00000  Uiso   1.00
H361   H     0.53136   0.64056   0.13273   0.00000  Uiso   1.00
H362   H     0.48426   0.77149   0.01699   0.00000  Uiso   1.00
H363   H     0.58947   0.86748   0.05774   0.00000  Uiso   1.00
H364   H     0.47939   0.83416   0.09279   0.00000  Uiso   1.00
H365   H     0.61631   0.73854   0.40079   0.00000  Uiso   1.00
H366   H     0.61209   0.77230   0.31500   0.00000  Uiso   1.00
H367   H     0.52653   0.67439   0.34928   0.00000  Uiso   1.00
H368   H     0.34023   0.86399   0.53364   0.00000  Uiso   1.00
H369   H     0.32517   0.90540   0.61379   0.00000  Uiso   1.00
H370   H     0.24746   0.87063   0.53944   0.00000  Uiso   1.00
H371   H     0.41704   0.83608   0.22657   0.00000  Uiso   1.00
H372   H     0.44810   0.93945   0.25504   0.00000  Uiso   1.00
H373   H     0.37067   0.85265   0.31644   0.00000  Uiso   1.00
H374   H     0.49206   0.94983   0.43639   0.00000  Uiso   1.00
H375   H     0.58497   1.03416   0.37798   0.00000  Uiso   1.00
H376   H     0.59681   0.97221   0.44075   0.00000  Uiso   1.00
H377   H     0.41464   0.68763   0.67685   0.00000  Uiso   1.00
H378   H     0.31453   0.65753   0.74192   0.00000  Uiso   1.00
H379   H     0.42174   0.73567   0.77703   0.00000  Uiso   1.00
H380   H     0.46896   0.88917   0.76570   0.00000  Uiso   1.00
H381   H     0.36337   0.87143   0.76597   0.00000  Uiso   1.00
H382   H     0.44440   0.92883   0.69820   0.00000  Uiso   1.00
H383   H     0.79601   0.07311   0.03367   0.00000  Uiso   1.00
H384   H     0.73777  -0.02509  -0.01598   0.00000  Uiso   1.00
H385   H     0.85090   0.03974  -0.04031   0.00000  Uiso   1.00
H386   H     1.01138   0.20674   0.31420   0.00000  Uiso   1.00
H387   H     1.00270   0.20469   0.41992   0.00000  Uiso   1.00
H388   H     0.98629   0.27044   0.37143   0.00000  Uiso   1.00
H389   H     0.57808   0.11338   0.58665   0.00000  Uiso   1.00
H390   H     0.64472   0.13550   0.49708   0.00000  Uiso   1.00
H391   H     0.58831   0.18299   0.53409   0.00000  Uiso   1.00
H392   H     0.79664   0.22456   0.69939   0.00000  Uiso   1.00
H393   H     0.80861   0.18279   0.60544   0.00000  Uiso   1.00
H394   H     0.70355   0.13122   0.66738   0.00000  Uiso   1.00
H395   H     0.89036   0.19134   0.13336   0.00000  Uiso   1.00
H396   H     1.00553   0.27747   0.12568   0.00000  Uiso   1.00
H397   H     0.96220   0.22273   0.21377   0.00000  Uiso   1.00
H398   H     0.92463   0.32074   0.20574   0.00000  Uiso   1.00
H399   H     0.97743   0.35304   0.29718   0.00000  Uiso   1.00
H400   H     0.91430   0.39069   0.26856   0.00000  Uiso   1.00
H401   H     0.75705  -0.04587   0.82334   0.00000  Uiso   1.00
H402   H     0.71792  -0.07788   0.73258   0.00000  Uiso   1.00
H403   H     0.83165   0.00536   0.73555   0.00000  Uiso   1.00
H404   H     0.96325  -0.01606   0.75160   0.00000  Uiso   1.00
H405   H     0.94902  -0.10686   0.76214   0.00000  Uiso   1.00
H406   H     0.92699  -0.05309   0.84397   0.00000  Uiso   1.00
H407   H     0.73410   0.78116   0.63980   0.00000  Uiso   1.00
H408   H     0.84671   0.81452   0.63682   0.00000  Uiso   1.00
H409   H     0.81975   0.88225   0.60922   0.00000  Uiso   1.00
H410   H     0.80085   0.08588   0.85956   0.00000  Uiso   1.00
H411   H     0.77414   0.11960   0.77812   0.00000  Uiso   1.00
H412   H     0.72348   0.11025   0.87074   0.00000  Uiso   1.00
H413   H     0.97695   0.29435   0.96774   0.00000  Uiso   1.00
H414   H     0.93083   0.19155   0.95461   0.00000  Uiso   1.00
H415   H     0.86823   0.23767   1.00093   0.00000  Uiso   1.00
H416   H     0.90001   0.36254   0.88615   0.00000  Uiso   1.00
H417   H     0.78650   0.27834   0.89702   0.00000  Uiso   1.00
H418   H     0.83501   0.31424   0.80278   0.00000  Uiso   1.00
H419   H     0.90581   0.34088   0.08351   0.00000  Uiso   1.00
H420   H     0.97166   0.43613   0.13566   0.00000  Uiso   1.00
H421   H     0.95625   0.43276   0.02849   0.00000  Uiso   1.00
H422   H     0.68806   0.34831   0.04500   0.00000  Uiso   1.00
H423   H     0.72010   0.28252   0.00995   0.00000  Uiso   1.00
H424   H     0.78454   0.38138  -0.02169   0.00000  Uiso   1.00
H425   H     0.77534   0.48562   0.14801   0.00000  Uiso   1.00
H426   H     0.86977   0.52589   0.07006   0.00000  Uiso   1.00
H427   H     0.88823   0.52752   0.17160   0.00000  Uiso   1.00
H428   H     0.50999   0.58071   0.24356   0.00000  Uiso   1.00
H429   H     0.54375   0.54643   0.31412   0.00000  Uiso   1.00
H430   H     0.48528   0.47685   0.24367   0.00000  Uiso   1.00
H431   H     0.86358   0.46133   0.31028   0.00000  Uiso   1.00
H432   H     0.94148   0.55717   0.35593   0.00000  Uiso   1.00
H433   H     0.84511   0.53834   0.31153   0.00000  Uiso   1.00
H434   H     0.71796   0.59346   0.31473   0.00000  Uiso   1.00
H435   H     0.77462   0.59336   0.22596   0.00000  Uiso   1.00
H436   H     0.67336   0.49990   0.25695   0.00000  Uiso   1.00
H437   H     0.67512   0.48714   0.40315   0.00000  Uiso   1.00
H438   H     0.63028   0.40449   0.46618   0.00000  Uiso   1.00
H439   H     0.65641   0.39685   0.35768   0.00000  Uiso   1.00
H440   H     0.97937   0.22161   0.63523   0.00000  Uiso   1.00
H441   H     1.08739   0.26468   0.65647   0.00000  Uiso   1.00
H442   H     1.07325   0.32247   0.60188   0.00000  Uiso   1.00
H443   H     0.95640   0.53038   0.68876   0.00000  Uiso   1.00
H444   H     0.90657   0.46435   0.76905   0.00000  Uiso   1.00
H445   H     0.86330   0.42986   0.67069   0.00000  Uiso   1.00
H446   H     1.09572   0.57744   0.73014   0.00000  Uiso   1.00
H447   H     1.15622   0.57162   0.64578   0.00000  Uiso   1.00
H448   H     1.13862   0.51678   0.73360   0.00000  Uiso   1.00
H449   H     0.86513   0.68842   0.10227   0.00000  Uiso   1.00
H450   H     0.88750   0.72342   0.20175   0.00000  Uiso   1.00
H451   H     0.94450   0.78779   0.12049   0.00000  Uiso   1.00
H452   H     0.66583   0.47744   0.67159   0.00000  Uiso   1.00
H453   H     0.70154   0.41371   0.63488   0.00000  Uiso   1.00
H454   H     0.63980   0.43036   0.58310   0.00000  Uiso   1.00
H455   H     0.59116   0.82336   0.67867   0.00000  Uiso   1.00
H456   H     0.66187   0.83680   0.59035   0.00000  Uiso   1.00
H457   H     0.56568   0.74623   0.60956   0.00000  Uiso   1.00
H458   H     0.69296   1.00501   0.56518   0.00000  Uiso   1.00
H459   H     0.62400   0.96848   0.65556   0.00000  Uiso   1.00
H460   H     0.59275   0.99901   0.58921   0.00000  Uiso   1.00
H461   H     0.84689   1.10998   0.49317   0.00000  Uiso   1.00
H462   H     0.73210   1.06949   0.46322   0.00000  Uiso   1.00
H463   H     0.81466   1.17153   0.47952   0.00000  Uiso   1.00
H464   H     0.73641   0.63208   0.60759   0.00000  Uiso   1.00
H465   H     0.71819   0.59188   0.51110   0.00000  Uiso   1.00
H466   H     0.82546   0.66901   0.53315   0.00000  Uiso   1.00
H467   H     0.73668   0.87542   0.42292   0.00000  Uiso   1.00
H468   H     0.72144   0.95021   0.45380   0.00000  Uiso   1.00
H469   H     0.83286   0.96833   0.46006   0.00000  Uiso   1.00
H470   H     0.60793   0.63922   0.94293   0.00000  Uiso   1.00
H471   H     0.71957   0.67862   0.90982   0.00000  Uiso   1.00
H472   H     0.63189   0.63606   0.83878   0.00000  Uiso   1.00
H473   H     0.57150   0.76631   0.82591   0.00000  Uiso   1.00
H474   H     0.59087   0.81886   0.90939   0.00000  Uiso   1.00
H475   H     0.53644   0.71650   0.92494   0.00000  Uiso   1.00
loop_
_geom_bond_atom_site_label_1
_geom_bond_atom_site_label_2
_geom_bond_distance
_geom_bond_site_symmetry_2
_ccdc_geom_bond_type
Si1    C52     1.947   .     S
Si1    C53     1.917   .     S
Si1    C54     1.929   1_545 S
Si1    O72     1.623   1_545 S
Si2    O55     1.604   .     S
Si2    O63     1.619   .     S
Si2    O137    1.559   1_455 S
Si2    C144    1.839   1_455 S
Si3    O55     1.601   .     S
Si3    C56     1.832   .     S
Si3    C57     1.963   .     S
Si3    C58     1.861   .     S
Si4    O60     1.598   .     S
Si4    O97     1.541   .     S
Si4    O87     1.603   1_545 S
Si4    O91     1.615   1_545 S
Si5    C59     1.907   .     S
Si5    O60     1.590   .     S
Si5    C61     1.885   .     S
Si5    C62     1.896   .     S
Si6    O63     1.623   .     S
Si6    C64     1.825   .     S
Si6    O65     1.562   .     S
Si6    C107    1.860   .     S
Si7    O65     1.562   .     S
Si7    C66     1.934   .     S
Si7    O70     1.554   1_554 S
Si7    O121    1.565   1_554 S
Si8    C67     1.832   .     S
Si8    O73     1.618   .     S
Si8    O162    1.552   1_455 S
Si8    O170    1.589   1_455 S
Si9    C68     1.854   .     S
Si9    C69     1.888   .     S
Si9    O74     1.585   .     S
Si9    O110    1.596   .     S
Si10   O70     1.604   .     S
Si10   C82     1.855   .     S
Si10   C71     1.872   1_455 S
Si10   O169    1.581   1_455 S
Si11   O72     1.593   .     S
Si11   C77     1.834   .     S
Si11   O176    1.578   1_455 S
Si11   O191    1.585   1_455 S
Si12   O73     1.616   .     S
Si12   O74     1.635   .     S
Si12   O79     1.568   .     S
Si12   O127    1.619   .     S
Si13   C75     1.882   .     S
Si13   O89     1.577   .     S
Si13   C76     1.876   1_455 S
Si13   O185    1.612   1_455 S
Si14   C78     1.921   .     S
Si14   O79     1.550   .     S
Si14   C80     1.813   .     S
Si14   C81     1.851   .     S
Si15   C83     1.871   .     S
Si15   C84     1.848   .     S
Si15   C85     1.821   .     S
Si15   O90     1.604   .     S
Si16   C86     1.866   .     S
Si16   O87     1.623   .     S
Si16   C88     1.833   1_455 S
Si16   O180    1.581   1_455 S
Si17   O89     1.588   .     S
Si17   O90     1.553   .     S
Si17   O91     1.615   .     S
Si17   O129    1.564   .     S
Si18   C92     1.857   .     S
Si18   O138    1.613   .     S
Si18   C93     1.864   1_545 S
Si18   C94     1.828   1_545 S
Si19   C95     1.960   .     S
Si19   C96     1.856   .     S
Si19   O112    1.609   .     S
Si19   O139    1.617   .     S
Si20   O97     1.576   .     S
Si20   C98     1.897   .     S
Si20   C99     1.933   .     S
Si20   C100    1.785   .     S
Si21   C101    1.858   .     S
Si21   C102    1.828   .     S
Si21   C103    1.875   .     S
Si21   O143    1.586   .     S
Si22   C104    1.787   .     S
Si22   C105    1.930   .     S
Si22   C106    1.829   .     S
Si22   O158    1.583   .     S
Si23   C108    1.898   .     S
Si23   C109    1.869   .     S
Si23   O110    1.619   .     S
Si23   O122    1.614   .     S
Si24   C111    1.844   .     S
Si24   O112    1.605   .     S
Si24   C113    1.856   .     S
Si24   C114    1.851   .     S
Si25   C115    1.878   .     S
Si25   C116    1.885   .     S
Si25   C117    1.834   .     S
Si25   O125    1.631   .     S
Si26   C118    1.876   .     S
Si26   C119    1.893   .     S
Si26   C120    1.850   .     S
Si26   O121    1.619   .     S
Si27   O122    1.550   .     S
Si27   C123    1.860   .     S
Si27   C124    1.835   .     S
Si27   O177    1.610   .     S
Si28   O125    1.614   .     S
Si28   C126    1.875   .     S
Si28   O131    1.591   .     S
Si28   O186    1.590   .     S
Si29   O127    1.544   .     S
Si29   C128    1.800   .     S
Si29   O129    1.639   .     S
Si29   O133    1.585   .     S
Si30   C130    1.849   .     S
Si30   O131    1.625   .     S
Si30   C132    1.856   .     S
Si30   O179    1.600   .     S
Si31   O133    1.560   .     S
Si31   C134    1.894   .     S
Si31   C135    1.896   .     S
Si31   O190    1.635   .     S
Si32   C136    1.889   .     S
Si32   O137    1.568   .     S
Si32   O178    1.612   1_545 S
Si32   O182    1.608   1_545 S
Si33   O138    1.606   .     S
Si33   O139    1.609   .     S
Si33   O146    1.595   .     S
Si33   O154    1.582   .     S
Si34   C140    1.878   .     S
Si34   O147    1.603   .     S
Si34   C189    1.873   1_545 S
Si34   O195    1.589   1_545 S
Si35   C141    1.854   .     S
Si35   C142    1.889   .     S
Si35   O143    1.593   .     S
Si35   O160    1.551   .     S
Si36   C145    1.807   .     S
Si36   O146    1.612   .     S
Si36   O147    1.613   .     S
Si36   O161    1.615   .     S
Si37   C148    1.887   .     S
Si37   C149    1.886   .     S
Si37   C150    1.901   1_545 S
Si37   O198    1.620   1_545 S
Si38   C151    1.843   .     S
Si38   C152    1.909   .     S
Si38   C153    1.920   .     S
Si38   O167    1.594   .     S
Si39   O154    1.617   .     S
Si39   C155    1.882   .     S
Si39   C156    1.881   .     S
Si39   C157    1.873   .     S
Si40   O158    1.603   .     S
Si40   C159    1.863   .     S
Si40   C164    1.921   .     S
Si40   O174    1.635   .     S
Si41   O160    1.639   .     S
Si41   O161    1.630   .     S
Si41   O162    1.611   .     S
Si41   O166    1.567   .     S
Si42   C163    1.882   .     S
Si42   C165    1.847   .     S
Si42   O166    1.636   .     S
Si42   O184    1.559   .     S
Si43   O167    1.595   .     S
Si43   C168    1.846   .     S
Si43   O169    1.576   .     S
Si43   O172    1.588   .     S
Si44   O170    1.594   .     S
Si44   C171    1.870   .     S
Si44   O172    1.609   .     S
Si44   C173    1.881   .     S
Si45   O174    1.562   .     S
Si45   C175    1.849   .     S
Si45   O176    1.590   .     S
Si45   O181    1.587   .     S
Si46   O177    1.599   .     S
Si46   O178    1.590   .     S
Si46   O179    1.623   .     S
Si46   O192    1.574   .     S
Si47   O181    1.615   .     S
Si47   O182    1.595   .     S
Si47   O180    1.620   1_554 S
Si47   O197    1.565   1_554 S
Si48   C183    1.815   .     S
Si48   O184    1.552   .     S
Si48   O185    1.625   .     S
Si48   C193    1.904   .     S
Si49   O186    1.583   .     S
Si49   C187    1.875   .     S
Si49   C188    1.915   .     S
Si49   O190    1.568   .     S
Si50   O191    1.570   .     S
Si50   O192    1.584   .     S
Si50   C194    1.820   .     S
Si50   O195    1.615   .     S
Si51   C196    1.830   .     S
Si51   O197    1.622   .     S
Si51   O198    1.601   .     S
Si51   C199    1.866   .     S
C52    H200    1.090   .     S
C52    H201    1.065   .     S
C52    H202    1.135   .     S
C53    H203    1.102   .     S
C53    H204    1.112   .     S
C53    H205    1.098   .     S
C54    H206    1.060   .     S
C54    H207    1.158   .     S
C54    H208    1.147   .     S
C54    Si1     1.929   1_565 S
C56    H209    1.107   .     S
C56    H210    1.095   .     S
C56    H211    1.114   .     S
C57    H212    1.103   .     S
C57    H213    1.103   .     S
C57    H214    1.076   .     S
C58    H215    1.142   .     S
C58    H216    1.110   .     S
C58    H217    1.084   .     S
C59    H218    1.064   .     S
C59    H219    1.101   .     S
C59    H220    1.020   .     S
C61    H221    1.105   .     S
C61    H222    1.116   .     S
C61    H223    1.133   .     S
C62    H224    1.107   .     S
C62    H225    1.117   .     S
C62    H226    1.113   .     S
C64    H227    1.130   .     S
C64    H228    1.090   .     S
C64    H229    1.075   .     S
C66    H230    1.140   .     S
C66    H231    1.183   .     S
C66    H232    1.105   .     S
C67    H233    1.123   .     S
C67    H234    1.067   .     S
C67    H235    1.119   .     S
C68    H236    1.159   .     S
C68    H237    1.121   .     S
C68    H238    1.051   .     S
C69    H239    1.138   .     S
C69    H240    1.057   .     S
C69    H241    1.058   .     S
O70    Si7     1.554   1_556 S
C71    H242    1.054   .     S
C71    H243    1.133   .     S
C71    H244    1.108   .     S
C71    Si10    1.872   1_655 S
O72    Si1     1.623   1_565 S
C75    H245    1.075   .     S
C75    H246    1.101   .     S
C75    H247    1.161   .     S
C76    H248    1.124   .     S
C76    H249    1.101   .     S
C76    H250    1.112   .     S
C76    Si13    1.876   1_655 S
C77    H251    1.124   .     S
C77    H252    1.099   .     S
C77    H253    1.097   .     S
C78    H254    1.139   .     S
C78    H255    1.081   .     S
C78    H256    1.098   .     S
C80    H257    1.157   .     S
C80    H258    1.115   .     S
C80    H259    1.086   .     S
C81    H260    1.128   .     S
C81    H261    1.127   .     S
C81    H262    1.076   .     S
C82    H263    1.071   .     S
C82    H264    1.117   .     S
C82    H265    1.132   .     S
C83    H266    1.152   .     S
C83    H267    1.125   .     S
C83    H268    1.082   .     S
C84    H269    1.135   .     S
C84    H270    1.095   .     S
C84    H271    1.145   .     S
C85    H272    1.031   .     S
C85    H273    1.120   .     S
C85    H274    1.099   .     S
C86    H275    1.091   .     S
C86    H276    1.051   .     S
C86    H277    1.034   .     S
O87    Si4     1.603   1_565 S
C88    H278    1.136   .     S
C88    H279    1.121   .     S
C88    H280    1.086   .     S
C88    Si16    1.833   1_655 S
O91    Si4     1.615   1_565 S
C92    H281    1.103   .     S
C92    H282    1.118   .     S
C92    H283    1.120   .     S
C93    H284    1.151   .     S
C93    H285    1.105   .     S
C93    H286    1.069   .     S
C93    Si18    1.864   1_565 S
C94    H287    1.110   .     S
C94    H288    1.051   .     S
C94    H289    1.119   .     S
C94    Si18    1.828   1_565 S
C95    H290    1.059   .     S
C95    H291    1.082   .     S
C95    H292    1.124   .     S
C96    H293    1.020   .     S
C96    H294    1.118   .     S
C96    H295    1.124   .     S
C98    H296    1.051   .     S
C98    H297    1.100   .     S
C98    H298    1.084   .     S
C99    H299    1.108   .     S
C99    H300    1.037   .     S
C99    H301    1.125   .     S
C100   H302    1.093   .     S
C100   H303    1.140   .     S
C100   H304    1.135   .     S
C101   H305    1.136   .     S
C101   H306    1.132   .     S
C101   H307    1.109   .     S
C102   H308    1.131   .     S
C102   H309    1.118   .     S
C102   H310    1.141   .     S
C103   H311    1.136   .     S
C103   H312    1.090   .     S
C103   H313    1.107   .     S
C104   H314    1.124   .     S
C104   H315    1.087   .     S
C104   H316    1.070   .     S
C105   H317    1.090   .     S
C105   H318    1.101   .     S
C105   H319    1.119   .     S
C106   H320    1.146   .     S
C106   H321    1.100   .     S
C106   H322    1.101   .     S
C107   H323    1.093   .     S
C107   H324    1.090   .     S
C107   H325    1.085   .     S
C108   H326    1.122   .     S
C108   H327    1.083   .     S
C108   H328    1.031   .     S
C109   H329    1.038   .     S
C109   H330    1.093   .     S
C109   H331    1.079   .     S
C111   H332    1.097   .     S
C111   H333    1.147   .     S
C111   H334    1.146   .     S
C113   H335    1.086   .     S
C113   H336    1.129   .     S
C113   H337    1.124   .     S
C114   H338    1.109   .     S
C114   H339    1.120   .     S
C114   H340    1.092   .     S
C115   H341    1.075   .     S
C115   H342    1.138   .     S
C115   H343    1.093   .     S
C116   H344    1.133   .     S
C116   H345    1.135   .     S
C116   H346    1.165   .     S
C117   H347    1.090   .     S
C117   H348    1.072   .     S
C117   H349    1.116   .     S
C118   H350    1.053   .     S
C118   H351    1.119   .     S
C118   H352    1.146   .     S
C119   H353    1.155   .     S
C119   H354    1.151   .     S
C119   H355    1.099   .     S
C120   H356    1.168   .     S
C120   H357    1.097   .     S
C120   H358    1.084   .     S
O121   Si7     1.565   1_556 S
C123   H359    1.112   .     S
C123   H360    1.114   .     S
C123   H361    1.102   .     S
C124   H362    1.142   .     S
C124   H363    1.117   .     S
C124   H364    1.120   .     S
C126   H365    1.079   .     S
C126   H366    1.071   .     S
C126   H367    1.115   .     S
C128   H368    1.103   .     S
C128   H369    1.068   .     S
C128   H370    1.123   .     S
C130   H371    1.168   .     S
C130   H372    1.117   .     S
C130   H373    1.091   .     S
C132   H374    1.135   .     S
C132   H375    1.140   .     S
C132   H376    1.103   .     S
C134   H377    1.135   .     S
C134   H378    1.131   .     S
C134   H379    1.167   .     S
C135   H380    1.065   .     S
C135   H381    1.065   .     S
C135   H382    1.035   .     S
C136   H383    1.116   .     S
C136   H384    1.087   .     S
C136   H385    1.130   .     S
O137   Si2     1.559   1_655 S
C140   H386    1.107   .     S
C140   H387    1.159   .     S
C140   H388    1.118   .     S
C141   H389    1.086   .     S
C141   H390    1.138   .     S
C141   H391    1.086   .     S
C142   H392    1.087   .     S
C142   H393    1.161   .     S
C142   H394    1.097   .     S
C144   H395    1.161   .     S
C144   H396    1.090   .     S
C144   H397    1.115   .     S
C144   Si2     1.839   1_655 S
C145   H398    1.145   .     S
C145   H399    1.161   .     S
C145   H400    1.142   .     S
C148   H401    1.101   .     S
C148   H402    1.092   .     S
C148   H403    1.143   .     S
C149   H404    1.090   .     S
C149   H405    1.153   .     S
C149   H406    1.064   .     S
C150   H407    1.096   .     S
C150   H408    1.088   .     S
C150   H409    1.164   .     S
C150   Si37    1.901   1_565 S
C151   H410    1.111   .     S
C151   H411    1.128   .     S
C151   H412    1.088   .     S
C152   H413    1.116   .     S
C152   H414    1.119   .     S
C152   H415    1.070   .     S
C153   H416    1.108   .     S
C153   H417    1.086   .     S
C153   H418    1.118   .     S
C155   H419    1.120   .     S
C155   H420    1.125   .     S
C155   H421    1.163   .     S
C156   H422    1.099   .     S
C156   H423    1.120   .     S
C156   H424    1.111   .     S
C157   H425    1.138   .     S
C157   H426    1.153   .     S
C157   H427    1.114   .     S
C159   H428    1.124   .     S
C159   H429    1.085   .     S
C159   H430    1.153   .     S
O162   Si8     1.552   1_655 S
C163   H431    1.113   .     S
C163   H432    1.122   .     S
C163   H433    1.108   .     S
C164   H434    1.130   .     S
C164   H435    1.080   .     S
C164   H436    1.122   .     S
C165   H437    1.152   .     S
C165   H438    1.162   .     S
C165   H439    1.143   .     S
C168   H440    1.105   .     S
C168   H441    1.052   .     S
C168   H442    1.109   .     S
O169   Si10    1.581   1_655 S
O170   Si8     1.589   1_655 S
C171   H443    1.065   .     S
C171   H444    1.145   .     S
C171   H445    1.144   .     S
C173   H446    1.095   .     S
C173   H447    1.137   .     S
C173   H448    1.129   .     S
C175   H449    1.152   .     S
C175   H450    1.062   .     S
C175   H451    1.077   .     S
O176   Si11    1.578   1_655 S
O178   Si32    1.612   1_565 S
O180   Si16    1.581   1_655 S
O180   Si47    1.620   1_556 S
O182   Si32    1.608   1_565 S
C183   H452    1.035   .     S
C183   H453    1.126   .     S
C183   H454    1.091   .     S
O185   Si13    1.612   1_655 S
C187   H455    1.071   .     S
C187   H456    1.078   .     S
C187   H457    1.133   .     S
C188   H458    1.155   .     S
C188   H459    1.091   .     S
C188   H460    1.081   .     S
C189   H461    1.113   .     S
C189   H462    1.126   .     S
C189   H463    1.058   .     S
C189   Si34    1.873   1_565 S
O191   Si11    1.585   1_655 S
C193   H464    1.142   .     S
C193   H465    1.076   .     S
C193   H466    1.090   .     S
C194   H467    1.066   .     S
C194   H468    1.129   .     S
C194   H469    1.132   .     S
O195   Si34    1.589   1_565 S
C196   H470    1.064   .     S
C196   H471    1.108   .     S
C196   H472    1.131   .     S
O197   Si47    1.565   1_556 S
O198   Si37    1.620   1_565 S
C199   H473    1.127   .     S
C199   H474    1.093   .     S
C199   H475    1.098   .     S
