data_333-7-11-18-15-30-16
_audit_creation_date              2025-03-07
_audit_creation_method            'Materials Studio'
_symmetry_space_group_name_H-M    'P1'
_symmetry_Int_Tables_number       1
_symmetry_cell_setting            triclinic
loop_
_symmetry_equiv_pos_as_xyz
  x,y,z
_cell_length_a                    16.7344
_cell_length_b                    16.1761
_cell_length_c                    21.2154
_cell_angle_alpha                 98.1272
_cell_angle_beta                  102.0651
_cell_angle_gamma                 117.1746
loop_
_atom_site_label
_atom_site_type_symbol
_atom_site_fract_x
_atom_site_fract_y
_atom_site_fract_z
_atom_site_U_iso_or_equiv
_atom_site_adp_type
_atom_site_occupancy
Si1    Si   -0.01600   0.13363   0.25040   0.00000  Uiso   1.00
Si2    Si    0.22468   0.26513  -0.11881   0.00000  Uiso   1.00
Si3    Si    0.18639   0.25433   0.25859   0.00000  Uiso   1.00
Si4    Si    0.24386   0.05203   0.73192   0.00000  Uiso   1.00
Si5    Si    0.23921   0.41661  -0.00703   0.00000  Uiso   1.00
Si6    Si   -0.12284   0.42471   0.33469   0.00000  Uiso   1.00
Si7    Si    0.08761   0.49878   0.35388   0.00000  Uiso   1.00
Si8    Si    0.12149   0.53595   0.66806   0.00000  Uiso   1.00
Si9    Si   -0.16817   0.74717   0.29811   0.00000  Uiso   1.00
Si10   Si    0.21500   0.89114  -0.03390   0.00000  Uiso   1.00
Si11   Si    0.18507   0.70162   0.34865   0.00000  Uiso   1.00
Si12   Si   -0.03422   0.78015   0.57887   0.00000  Uiso   1.00
Si13   Si    0.17361   0.70840   0.78519   0.00000  Uiso   1.00
Si14   Si    0.01449   0.82213   0.88303   0.00000  Uiso   1.00
Si15   Si    0.14276   0.82150   0.69169   0.00000  Uiso   1.00
Si16   Si    0.51697   0.24585  -0.03903   0.00000  Uiso   1.00
Si17   Si    0.48437  -0.00078   0.33593   0.00000  Uiso   1.00
Si18   Si    0.49686   0.11901   0.58774   0.00000  Uiso   1.00
Si19   Si    0.28878  -0.04221   0.25347   0.00000  Uiso   1.00
Si20   Si    0.49693   0.00404   0.82314   0.00000  Uiso   1.00
Si21   Si    0.37925   0.24867   0.83842   0.00000  Uiso   1.00
Si22   Si    0.54558   0.15901   0.73596   0.00000  Uiso   1.00
Si23   Si    0.55005   0.37598   0.09319   0.00000  Uiso   1.00
Si24   Si    0.38202   0.57330   0.11662   0.00000  Uiso   1.00
Si25   Si    0.61135   0.53385   0.02278   0.00000  Uiso   1.00
Si26   Si    0.54318   0.35277   0.78380   0.00000  Uiso   1.00
Si27   Si    0.44261   0.62975   0.85398   0.00000  Uiso   1.00
Si28   Si    0.53649   0.48581   0.68380   0.00000  Uiso   1.00
Si29   Si    0.46699   0.78012   0.11406   0.00000  Uiso   1.00
Si30   Si    0.48329   0.90553   0.01892   0.00000  Uiso   1.00
Si31   Si    0.47566   0.60863   0.43995   0.00000  Uiso   1.00
Si32   Si    0.28251   0.79389   0.63045   0.00000  Uiso   1.00
Si33   Si    0.55051   0.68514   0.75877   0.00000  Uiso   1.00
Si34   Si    0.34821   0.88799   0.88631   0.00000  Uiso   1.00
Si35   Si    0.46860   0.82763   0.72037   0.00000  Uiso   1.00
Si36   Si    0.89007   0.16980   0.49397   0.00000  Uiso   1.00
Si37   Si    0.65867   0.19069   0.93134   0.00000  Uiso   1.00
Si38   Si    0.58515   0.35469   0.23952   0.00000  Uiso   1.00
Si39   Si    0.89153   0.57452   0.00548   0.00000  Uiso   1.00
Si40   Si    1.07886   0.18112   0.53438   0.00000  Uiso   1.00
Si41   Si    0.63577   0.49018   0.57020   0.00000  Uiso   1.00
Si42   Si    0.72879   0.45784   0.37701   0.00000  Uiso   1.00
Si43   Si    0.85882   0.27800   0.91090   0.00000  Uiso   1.00
Si44   Si    0.69371   0.50112   0.91301   0.00000  Uiso   1.00
Si45   Si    0.78805   0.45815   0.64273   0.00000  Uiso   1.00
Si46   Si    0.91461   0.91757  -0.06007   0.00000  Uiso   1.00
Si47   Si    0.76647   0.62555   0.49866   0.00000  Uiso   1.00
Si48   Si    0.64146   0.77900   0.54783   0.00000  Uiso   1.00
Si49   Si    0.75653   0.75771   0.41367   0.00000  Uiso   1.00
Si50   Si    0.73602   0.86904   0.83485   0.00000  Uiso   1.00
Si51   Si    0.85139   0.85691   0.62150   0.00000  Uiso   1.00
C52    C     0.97739   0.02659   0.19299   0.00000  Uiso   1.00
C53    C     0.19566   0.16405  -0.08208   0.00000  Uiso   1.00
C54    C     0.13214   0.26109   0.81759   0.00000  Uiso   1.00
O55    O     0.08443   0.22393   0.26067   0.00000  Uiso   1.00
C56    C     0.24704   0.23032   0.33284   0.00000  Uiso   1.00
C57    C     0.25566   0.38478   0.26602   0.00000  Uiso   1.00
C58    C     0.17634   0.18798   0.17453   0.00000  Uiso   1.00
C59    C     0.28018   0.08970   0.65860   0.00000  Uiso   1.00
C60    C    -0.11517   0.14768   0.20831   0.00000  Uiso   1.00
C61    C     0.16133   0.32696   0.03107   0.00000  Uiso   1.00
O62    O     0.26091   0.36004  -0.06053   0.00000  Uiso   1.00
C63    C     0.18300   0.48319  -0.04404   0.00000  Uiso   1.00
C64    C    -0.15308   0.42371   0.24558   0.00000  Uiso   1.00
C65    C     0.83832   0.29962   0.33793   0.00000  Uiso   1.00
O66    O    -0.01010   0.48617   0.36097   0.00000  Uiso   1.00
C67    C     0.13079   0.44658   0.41883   0.00000  Uiso   1.00
C68    C     0.05351   0.54821   0.59259   0.00000  Uiso   1.00
C69    C     0.04434   0.43349   0.70016   0.00000  Uiso   1.00
C70    C     0.20467   0.50612   0.64250   0.00000  Uiso   1.00
C71    C    -0.18232   0.64481   0.23809   0.00000  Uiso   1.00
C72    C    -0.03753   0.84678   0.32520   0.00000  Uiso   1.00
C73    C     0.77029   0.79911   0.24339   0.00000  Uiso   1.00
C74    C     0.24452   0.83075   0.02905   0.00000  Uiso   1.00
C75    C     0.22356   0.99756   0.01841   0.00000  Uiso   1.00
C76    C     0.25889   0.81079   0.42545   0.00000  Uiso   1.00
O77    O     0.16049   0.60978   0.37415   0.00000  Uiso   1.00
C78    C     0.06470   0.69224   0.30747   0.00000  Uiso   1.00
C79    C     0.02692   0.80602   0.51047   0.00000  Uiso   1.00
C80    C     0.10044   0.62987   0.83029   0.00000  Uiso   1.00
O81    O     0.17808   0.63327   0.72676   0.00000  Uiso   1.00
O82    O     0.11048   0.82506   0.91938   0.00000  Uiso   1.00
C83    C     0.04898   0.89950   0.82690   0.00000  Uiso   1.00
C84    C     0.14103   1.06277   0.72631   0.00000  Uiso   1.00
C85    C     0.92425   0.69713   0.82899   0.00000  Uiso   1.00
O86    O     0.03620   0.78786   0.64603   0.00000  Uiso   1.00
O87    O     0.13338   0.76772   0.75189   0.00000  Uiso   1.00
O88    O     0.21395   0.93782   0.72732   0.00000  Uiso   1.00
C89    C     0.42591   0.12689  -0.04228   0.00000  Uiso   1.00
C90    C     0.50225   0.11149   0.39330   0.00000  Uiso   1.00
C91    C     0.57727   1.05279   0.29224   0.00000  Uiso   1.00
C92    C     0.38085   0.08802   0.52716   0.00000  Uiso   1.00
C93    C     0.56046   0.06081   0.55616   0.00000  Uiso   1.00
C94    C     0.56544   0.24911   0.59533   0.00000  Uiso   1.00
C95    C     0.19730  -0.16132   0.19028   0.00000  Uiso   1.00
O96    O     0.37524  -0.05616   0.28987   0.00000  Uiso   1.00
C97    C     0.23145  -0.01835   0.31597   0.00000  Uiso   1.00
C98    C     0.34090   0.06004   0.21425   0.00000  Uiso   1.00
O99    O     0.32189   0.13317   0.80047   0.00000  Uiso   1.00
O100   O     0.45786   0.28034   0.91234   0.00000  Uiso   1.00
O101   O     0.30543   0.28167   0.84857   0.00000  Uiso   1.00
O102   O     0.49215   0.10764   0.65907   0.00000  Uiso   1.00
O103   O     0.49575   0.07835   0.77579   0.00000  Uiso   1.00
C104   C     0.66845   0.19594   0.74971   0.00000  Uiso   1.00
C105   C     0.42342   0.32705   0.08363   0.00000  Uiso   1.00
O106   O     0.56107   0.30865   0.03690   0.00000  Uiso   1.00
O107   O     0.33154   0.48107   0.05472   0.00000  Uiso   1.00
C108   C     0.47944   0.57276   0.17815   0.00000  Uiso   1.00
C109   C     0.29319   0.57563   0.15573   0.00000  Uiso   1.00
C110   C     0.07117   0.44610   0.26781   0.00000  Uiso   1.00
O111   O     0.59693   0.48294   0.08246   0.00000  Uiso   1.00
O112   O     0.44087   0.31012   0.79534   0.00000  Uiso   1.00
O113   O     0.53605   0.25596   0.74527   0.00000  Uiso   1.00
C114   C     0.36356   0.49608   0.82235   0.00000  Uiso   1.00
C115   C     0.49808   0.69166   0.94299   0.00000  Uiso   1.00
C116   C     0.49052   0.49698   0.96824   0.00000  Uiso   1.00
C117   C     0.36720   0.67461   0.81690   0.00000  Uiso   1.00
C118   C     0.41499   0.39600   0.63220   0.00000  Uiso   1.00
O119   O     0.56051   0.43123   0.73838   0.00000  Uiso   1.00
O120   O     0.42863   0.66951   0.09302   0.00000  Uiso   1.00
C121   C     0.68911   0.67124   0.06106   0.00000  Uiso   1.00
C122   C     0.59339   0.85985   0.17141   0.00000  Uiso   1.00
C123   C     0.40041   0.80781   0.16705   0.00000  Uiso   1.00
O124   O     0.45766   0.81635   0.04763   0.00000  Uiso   1.00
C125   C     0.47798   1.00283   0.07771   0.00000  Uiso   1.00
C126   C     0.40579   0.53988   0.49110   0.00000  Uiso   1.00
C127   C     0.47824   0.51723   0.37624   0.00000  Uiso   1.00
C128   C     0.41333   0.67022   0.40250   0.00000  Uiso   1.00
C129   C     0.23808   0.69112   0.28135   0.00000  Uiso   1.00
C130   C     0.25112   0.70592   0.54960   0.00000  Uiso   1.00
C131   C     0.32398   0.90902   0.61379   0.00000  Uiso   1.00
C132   C     0.51270   0.92269   0.38817   0.00000  Uiso   1.00
O133   O     0.19068   0.77478   0.65023   0.00000  Uiso   1.00
O134   O     0.52225   0.65393   0.82163   0.00000  Uiso   1.00
O135   O     0.53306   0.58553   0.70743   0.00000  Uiso   1.00
O136   O     0.27752   0.78158   0.83562   0.00000  Uiso   1.00
O137   O     0.42005   0.87720   0.93997   0.00000  Uiso   1.00
O138   O     0.40510   0.96278   0.84715   0.00000  Uiso   1.00
O139   O     0.28614   0.91921   0.92245   0.00000  Uiso   1.00
O140   O     0.36103   0.79350   0.68709   0.00000  Uiso   1.00
O141   O     0.49312   0.73978   0.72863   0.00000  Uiso   1.00
O142   O     0.50628   0.91584   0.78539   0.00000  Uiso   1.00
C143   C     0.97502   0.10587   0.33054   0.00000  Uiso   1.00
C144   C     0.94039   0.30225   0.50392   0.00000  Uiso   1.00
C145   C     0.85826   0.15314   0.57551   0.00000  Uiso   1.00
C146   C     0.78311   0.09772   0.41635   0.00000  Uiso   1.00
O147   O     0.58618   0.07810   0.88951   0.00000  Uiso   1.00
C148   C     0.70899   0.19047   1.01773   0.00000  Uiso   1.00
O149   O     0.60040   0.24427   0.93417   0.00000  Uiso   1.00
O150   O     0.60181   0.38537   0.17240   0.00000  Uiso   1.00
C151   C     0.46304   0.32862   0.24456   0.00000  Uiso   1.00
C152   C     0.59345   0.23786   0.23436   0.00000  Uiso   1.00
C153   C     0.99559   0.57087   0.98649   0.00000  Uiso   1.00
C154   C     0.85846   0.51464   0.07266   0.00000  Uiso   1.00
C155   C     0.93464   0.70532   0.04781   0.00000  Uiso   1.00
C156   C     1.09013   0.07200   0.52067   0.00000  Uiso   1.00
O157   O     0.97338   0.14571   0.49644   0.00000  Uiso   1.00
C158   C     1.15980   0.27045   0.49650   0.00000  Uiso   1.00
C159   C     0.51771   0.38962   0.50026   0.00000  Uiso   1.00
O160   O     0.60955   0.51522   0.63864   0.00000  Uiso   1.00
O161   O     0.82775   0.46938   0.37361   0.00000  Uiso   1.00
O162   O     0.66104   0.43524   0.30507   0.00000  Uiso   1.00
C163   C     1.11548   0.24038   0.62583   0.00000  Uiso   1.00
C164   C     0.66916   0.34924   0.40886   0.00000  Uiso   1.00
O165   O     0.74694   0.23205   0.90220   0.00000  Uiso   1.00
C166   C     0.88637   0.18399   0.87646   0.00000  Uiso   1.00
C167   C     0.93629   0.32733   1.00034   0.00000  Uiso   1.00
O168   O     0.62477   0.40229   0.85550   0.00000  Uiso   1.00
O169   O     0.79663   0.51611   0.94060   0.00000  Uiso   1.00
C170   C     0.69648   0.60213   0.87958   0.00000  Uiso   1.00
O171   O     0.65915   0.49790   0.97698   0.00000  Uiso   1.00
C172   C     0.80410   0.35333   0.61656   0.00000  Uiso   1.00
O173   O     0.69694   0.44051   0.59307   0.00000  Uiso   1.00
C174   C     0.89133   0.36644   0.85831   0.00000  Uiso   1.00
C175   C     0.78010   0.47457   0.72441   0.00000  Uiso   1.00
C176   C     0.88670   0.56976   0.64226   0.00000  Uiso   1.00
O177   O     0.97358   0.86238   0.93327   0.00000  Uiso   1.00
C178   C     0.87872   0.88621   0.01544   0.00000  Uiso   1.00
C179   C     0.97872   1.04592  -0.04289   0.00000  Uiso   1.00
O180   O     0.69366   0.57803   0.54127   0.00000  Uiso   1.00
O181   O     0.73639   0.54332   0.42916   0.00000  Uiso   1.00
O182   O     0.87375   0.67366   0.54312   0.00000  Uiso   1.00
O183   O     0.57989   0.68539   0.48438   0.00000  Uiso   1.00
C184   C     0.61765   0.87522   0.53276   0.00000  Uiso   1.00
C185   C     0.60496   0.74266   0.61679   0.00000  Uiso   1.00
C186   C     0.53429   0.89510   0.66581   0.00000  Uiso   1.00
O187   O     0.80319   0.72736   0.36298   0.00000  Uiso   1.00
C188   C     0.64213   0.73817   0.35804   0.00000  Uiso   1.00
O189   O     0.74735   0.70244   0.47215   0.00000  Uiso   1.00
C190   C     0.83630   0.89009   0.44415   0.00000  Uiso   1.00
O191   O     0.65810   0.76392   0.78777   0.00000  Uiso   1.00
O192   O     0.82936   0.87251   0.87371   0.00000  Uiso   1.00
C193   C     0.77035   0.96137   0.78459   0.00000  Uiso   1.00
C194   C     0.69270   0.90034   0.90520   0.00000  Uiso   1.00
C195   C     0.61148   0.95510   1.02296   0.00000  Uiso   1.00
O196   O     0.92276   0.84784   0.58894   0.00000  Uiso   1.00
O197   O     0.74915   0.81422   0.56546   0.00000  Uiso   1.00
C198   C     0.82634   0.78588   0.68727   0.00000  Uiso   1.00
C199   C     0.90036   0.98637   0.65996   0.00000  Uiso   1.00
H200   H     1.02040   0.00522   0.22294   0.00000  Uiso   1.00
H201   H     1.00530   0.04643   0.15358   0.00000  Uiso   1.00
H202   H     0.90544  -0.03379   0.17034   0.00000  Uiso   1.00
H203   H     0.21314   0.18879  -0.02753   0.00000  Uiso   1.00
H204   H     0.22250   0.11879  -0.10056   0.00000  Uiso   1.00
H205   H     0.11716   0.11709  -0.09940   0.00000  Uiso   1.00
H206   H     0.07671   0.27033   0.83598   0.00000  Uiso   1.00
H207   H     0.08697   0.18852   0.78206   0.00000  Uiso   1.00
H208   H     0.15784   0.32174   0.79369   0.00000  Uiso   1.00
H209   H     0.32047   0.24713   0.32940   0.00000  Uiso   1.00
H210   H     0.20529   0.15522   0.33678   0.00000  Uiso   1.00
H211   H     0.26725   0.27723   0.38094   0.00000  Uiso   1.00
H212   H     0.20793   0.39725   0.23079   0.00000  Uiso   1.00
H213   H     0.32003   0.40997   0.25091   0.00000  Uiso   1.00
H214   H     0.26911   0.42744   0.31589   0.00000  Uiso   1.00
H215   H     0.12094   0.19354   0.13448   0.00000  Uiso   1.00
H216   H     0.15734   0.11401   0.17687   0.00000  Uiso   1.00
H217   H     0.24837   0.22116   0.16994   0.00000  Uiso   1.00
H218   H     0.24646   0.02902   0.61678   0.00000  Uiso   1.00
H219   H     0.35593   0.11978   0.67290   0.00000  Uiso   1.00
H220   H     0.25985   0.14376   0.64747   0.00000  Uiso   1.00
H221   H    -0.18694   0.08089   0.20956   0.00000  Uiso   1.00
H222   H    -0.11133   0.15479   0.15975   0.00000  Uiso   1.00
H223   H    -0.10133   0.21991   0.23763   0.00000  Uiso   1.00
H224   H     0.19964   0.29065   0.05361   0.00000  Uiso   1.00
H225   H     0.09203   0.26671  -0.00565   0.00000  Uiso   1.00
H226   H     0.15069   0.37097   0.07152   0.00000  Uiso   1.00
H227   H     0.17646   0.52545  -0.00292   0.00000  Uiso   1.00
H228   H     0.10881   0.42651  -0.08061   0.00000  Uiso   1.00
H229   H     0.22629   0.53741  -0.06764   0.00000  Uiso   1.00
H230   H    -0.13284   0.37789   0.21832   0.00000  Uiso   1.00
H231   H    -0.11586   0.49701   0.23822   0.00000  Uiso   1.00
H232   H    -0.22960   0.39587   0.22285   0.00000  Uiso   1.00
H233   H     0.81480   0.28660   0.38289   0.00000  Uiso   1.00
H234   H     0.90197   0.29340   0.34973   0.00000  Uiso   1.00
H235   H     0.79039   0.24942   0.29366   0.00000  Uiso   1.00
H236   H     0.15500   0.49100   0.47018   0.00000  Uiso   1.00
H237   H     0.19678   0.45156   0.40977   0.00000  Uiso   1.00
H238   H     0.07600   0.37137   0.41150   0.00000  Uiso   1.00
H239   H     0.05805   0.61801   0.60326   0.00000  Uiso   1.00
H240   H    -0.02324   0.48730   0.57833   0.00000  Uiso   1.00
H241   H     0.07895   0.54087   0.54973   0.00000  Uiso   1.00
H242   H     0.09309   0.42275   0.74222   0.00000  Uiso   1.00
H243   H     0.00404   0.36510   0.66055   0.00000  Uiso   1.00
H244   H    -0.00917   0.44288   0.71861   0.00000  Uiso   1.00
H245   H     0.23360   0.48841   0.68695   0.00000  Uiso   1.00
H246   H     0.26765   0.56305   0.63549   0.00000  Uiso   1.00
H247   H     0.16498   0.44086   0.60650   0.00000  Uiso   1.00
H248   H    -0.25786   0.59037   0.21620   0.00000  Uiso   1.00
H249   H    -0.13989   0.61662   0.26107   0.00000  Uiso   1.00
H250   H    -0.15179   0.66858   0.19802   0.00000  Uiso   1.00
H251   H    -0.00676   0.85980   0.28507   0.00000  Uiso   1.00
H252   H     0.00231   0.82004   0.35569   0.00000  Uiso   1.00
H253   H    -0.02570   0.91980   0.35647   0.00000  Uiso   1.00
H254   H     0.69537   0.74607   0.21625   0.00000  Uiso   1.00
H255   H     0.80884   0.81985   0.20735   0.00000  Uiso   1.00
H256   H     0.77891   0.86868   0.26943   0.00000  Uiso   1.00
H257   H     0.30087   0.89175   0.07218   0.00000  Uiso   1.00
H258   H     0.26844   0.78257   0.00955   0.00000  Uiso   1.00
H259   H     0.18008   0.79504   0.04238   0.00000  Uiso   1.00
H260   H     0.29991   1.05053   0.04592   0.00000  Uiso   1.00
H261   H     0.18463   0.97609   0.05463   0.00000  Uiso   1.00
H262   H     0.19168   1.02660  -0.01615   0.00000  Uiso   1.00
H263   H     0.28279   0.88243   0.41482   0.00000  Uiso   1.00
H264   H     0.32795   0.81526   0.44733   0.00000  Uiso   1.00
H265   H     0.22393   0.81174   0.46326   0.00000  Uiso   1.00
H266   H     0.02326   0.66788   0.34300   0.00000  Uiso   1.00
H267   H     0.02719   0.63834   0.26030   0.00000  Uiso   1.00
H268   H     0.06926   0.76293   0.29794   0.00000  Uiso   1.00
H269   H     0.07667   0.88285   0.51930   0.00000  Uiso   1.00
H270   H    -0.02863   0.77341   0.45907   0.00000  Uiso   1.00
H271   H     0.07300   0.77259   0.51270   0.00000  Uiso   1.00
H272   H     0.13836   0.59135   0.84954   0.00000  Uiso   1.00
H273   H     0.02883   0.57437   0.80105   0.00000  Uiso   1.00
H274   H     0.09746   0.66743   0.87447   0.00000  Uiso   1.00
H275   H    -0.00148   0.92388   0.81017   0.00000  Uiso   1.00
H276   H     0.05009   0.85621   0.78098   0.00000  Uiso   1.00
H277   H     0.12321   0.96076   0.84898   0.00000  Uiso   1.00
H278   H     0.08586   1.00605   0.67885   0.00000  Uiso   1.00
H279   H     0.16282   1.13907   0.72061   0.00000  Uiso   1.00
H280   H     0.11630   1.05121   0.76952   0.00000  Uiso   1.00
H281   H     0.91012   0.64577   0.86125   0.00000  Uiso   1.00
H282   H     0.95023   0.67921   0.78580   0.00000  Uiso   1.00
H283   H     0.85726   0.69724   0.80829   0.00000  Uiso   1.00
H284   H     0.45256   0.07819  -0.03354   0.00000  Uiso   1.00
H285   H     0.37104   0.09773  -0.09207   0.00000  Uiso   1.00
H286   H     0.39338   0.13616  -0.00336   0.00000  Uiso   1.00
H287   H     0.57714   0.16014   0.43087   0.00000  Uiso   1.00
H288   H     0.45739   0.08303   0.42371   0.00000  Uiso   1.00
H289   H     0.48408   0.15660   0.36615   0.00000  Uiso   1.00
H290   H     0.54405   1.04709   0.23875   0.00000  Uiso   1.00
H291   H     0.59245   0.99502   0.28564   0.00000  Uiso   1.00
H292   H     0.63886   1.12452   0.32685   0.00000  Uiso   1.00
H293   H     0.34939   0.12370   0.55504   0.00000  Uiso   1.00
H294   H     0.33360   0.00848   0.51012   0.00000  Uiso   1.00
H295   H     0.39264   0.11513   0.48305   0.00000  Uiso   1.00
H296   H     0.50645  -0.01834   0.53770   0.00000  Uiso   1.00
H297   H     0.61421   0.07432   0.60450   0.00000  Uiso   1.00
H298   H     0.59150   0.09929   0.51897   0.00000  Uiso   1.00
H299   H     0.52895   0.28521   0.60555   0.00000  Uiso   1.00
H300   H     0.57461   0.24658   0.54564   0.00000  Uiso   1.00
H301   H     0.63447   0.28196   0.63263   0.00000  Uiso   1.00
H302   H     0.23070  -0.19430   0.16534   0.00000  Uiso   1.00
H303   H     0.14040  -0.15200   0.15534   0.00000  Uiso   1.00
H304   H     0.15136  -0.21416   0.21690   0.00000  Uiso   1.00
H305   H     0.28603   0.04265   0.35821   0.00000  Uiso   1.00
H306   H     0.19133  -0.08230   0.33192   0.00000  Uiso   1.00
H307   H     0.17841   0.00077   0.28838   0.00000  Uiso   1.00
H308   H     0.38660   0.12387   0.25815   0.00000  Uiso   1.00
H309   H     0.28722   0.07087   0.18255   0.00000  Uiso   1.00
H310   H     0.38411   0.05418   0.18308   0.00000  Uiso   1.00
H311   H     0.68401   0.13673   0.75758   0.00000  Uiso   1.00
H312   H     0.70581   0.25587   0.79665   0.00000  Uiso   1.00
H313   H     0.69232   0.22158   0.70648   0.00000  Uiso   1.00
H314   H     0.39374   0.25814   0.09496   0.00000  Uiso   1.00
H315   H     0.38396   0.31343   0.02900   0.00000  Uiso   1.00
H316   H     0.41215   0.37418   0.11816   0.00000  Uiso   1.00
H317   H     0.52007   0.64695   0.21446   0.00000  Uiso   1.00
H318   H     0.52260   0.55893   0.15405   0.00000  Uiso   1.00
H319   H     0.45188   0.52284   0.20985   0.00000  Uiso   1.00
H320   H     0.24588   0.59265   0.12145   0.00000  Uiso   1.00
H321   H     0.32984   0.63168   0.20053   0.00000  Uiso   1.00
H322   H     0.24717   0.50213   0.16510   0.00000  Uiso   1.00
H323   H     0.14464   0.47748   0.26495   0.00000  Uiso   1.00
H324   H     0.02983   0.45787   0.22985   0.00000  Uiso   1.00
H325   H     0.04185   0.37062   0.26200   0.00000  Uiso   1.00
H326   H     0.40627   0.45918   0.81405   0.00000  Uiso   1.00
H327   H     0.30250   0.47208   0.77581   0.00000  Uiso   1.00
H328   H     0.34120   0.47316   0.86462   0.00000  Uiso   1.00
H329   H     0.52045   0.76395   0.94265   0.00000  Uiso   1.00
H330   H     0.56658   0.69542   0.96481   0.00000  Uiso   1.00
H331   H     0.45084   0.66814   0.97531   0.00000  Uiso   1.00
H332   H     0.44556   0.41870   0.96258   0.00000  Uiso   1.00
H333   H     0.49589   0.50092   0.92119   0.00000  Uiso   1.00
H334   H     0.46937   0.53759   0.99759   0.00000  Uiso   1.00
H335   H     0.31001   0.64930   0.84146   0.00000  Uiso   1.00
H336   H     0.33946   0.64508   0.76115   0.00000  Uiso   1.00
H337   H     0.40865   0.75523   0.83023   0.00000  Uiso   1.00
H338   H     0.36951   0.40702   0.66138   0.00000  Uiso   1.00
H339   H     0.40737   0.32358   0.61971   0.00000  Uiso   1.00
H340   H     0.40554   0.41851   0.58306   0.00000  Uiso   1.00
H341   H     0.69200   0.70001   0.01634   0.00000  Uiso   1.00
H342   H     0.75276   0.68512   0.10037   0.00000  Uiso   1.00
H343   H     0.65055   0.69389   0.09152   0.00000  Uiso   1.00
H344   H     0.64086   0.85157   0.14582   0.00000  Uiso   1.00
H345   H     0.60316   0.83916   0.21980   0.00000  Uiso   1.00
H346   H     0.60761   0.93639   0.18128   0.00000  Uiso   1.00
H347   H     0.41213   0.78353   0.21144   0.00000  Uiso   1.00
H348   H     0.32829   0.76693   0.13392   0.00000  Uiso   1.00
H349   H     0.42301   0.88628   0.17817   0.00000  Uiso   1.00
H350   H     0.41291   1.00231   0.05586   0.00000  Uiso   1.00
H351   H     0.54085   1.07105   0.08506   0.00000  Uiso   1.00
H352   H     0.47845   0.99543   0.12861   0.00000  Uiso   1.00
H353   H     0.45710   0.53641   0.53275   0.00000  Uiso   1.00
H354   H     0.35895   0.46418   0.46226   0.00000  Uiso   1.00
H355   H     0.36551   0.57075   0.51363   0.00000  Uiso   1.00
H356   H     0.42226   0.44242   0.37336   0.00000  Uiso   1.00
H357   H     0.55161   0.52935   0.39098   0.00000  Uiso   1.00
H358   H     0.47296   0.53333   0.32572   0.00000  Uiso   1.00
H359   H     0.39950   0.71502   0.43962   0.00000  Uiso   1.00
H360   H     0.34820   0.61740   0.36076   0.00000  Uiso   1.00
H361   H     0.45467   0.72266   0.38070   0.00000  Uiso   1.00
H362   H     0.27647   0.65207   0.28593   0.00000  Uiso   1.00
H363   H     0.29191   0.76788   0.28703   0.00000  Uiso   1.00
H364   H     0.18193   0.66089   0.23247   0.00000  Uiso   1.00
H365   H     0.18565   0.69369   0.51246   0.00000  Uiso   1.00
H366   H     0.23900   0.63660   0.55644   0.00000  Uiso   1.00
H367   H     0.30882   0.73254   0.53203   0.00000  Uiso   1.00
H368   H     0.26352   0.90236   0.57706   0.00000  Uiso   1.00
H369   H     0.37295   0.91745   0.58913   0.00000  Uiso   1.00
H370   H     0.35461   0.96523   0.65991   0.00000  Uiso   1.00
H371   H     0.45856   0.90321   0.41360   0.00000  Uiso   1.00
H372   H     0.57934   0.96239   0.42684   0.00000  Uiso   1.00
H373   H     0.51454   0.85995   0.35728   0.00000  Uiso   1.00
H374   H     1.03634   0.09778   0.35468   0.00000  Uiso   1.00
H375   H     0.90735   0.03906   0.32487   0.00000  Uiso   1.00
H376   H     0.97917   0.16882   0.36188   0.00000  Uiso   1.00
H377   H     0.99516   0.34454   0.55357   0.00000  Uiso   1.00
H378   H     0.88586   0.32504   0.49963   0.00000  Uiso   1.00
H379   H     0.96890   0.31963   0.46365   0.00000  Uiso   1.00
H380   H     0.82899   0.07624   0.56960   0.00000  Uiso   1.00
H381   H     0.80174   0.17167   0.57257   0.00000  Uiso   1.00
H382   H     0.91467   0.19479   0.62368   0.00000  Uiso   1.00
H383   H     0.73807   0.13299   0.40944   0.00000  Uiso   1.00
H384   H     0.74052   0.02626   0.42047   0.00000  Uiso   1.00
H385   H     0.80035   0.09500   0.37011   0.00000  Uiso   1.00
H386   H     0.75486   0.26590   1.04635   0.00000  Uiso   1.00
H387   H     0.74899   0.15056   1.01417   0.00000  Uiso   1.00
H388   H     0.65134   0.15448   1.04011   0.00000  Uiso   1.00
H389   H     0.45822   0.32259   0.29648   0.00000  Uiso   1.00
H390   H     0.40503   0.26186   0.20497   0.00000  Uiso   1.00
H391   H     0.45885   0.39095   0.23685   0.00000  Uiso   1.00
H392   H     0.56581   0.18975   0.18012   0.00000  Uiso   1.00
H393   H     0.55112   0.19520   0.26151   0.00000  Uiso   1.00
H394   H     0.66928   0.26329   0.26104   0.00000  Uiso   1.00
H395   H     1.01075   0.61102   0.94894   0.00000  Uiso   1.00
H396   H     0.98278   0.49798   0.97743   0.00000  Uiso   1.00
H397   H     1.05407   0.60624   1.03177   0.00000  Uiso   1.00
H398   H     0.81561   0.53482   0.09585   0.00000  Uiso   1.00
H399   H     0.91609   0.52420   0.10988   0.00000  Uiso   1.00
H400   H     0.81661   0.43576   0.05061   0.00000  Uiso   1.00
H401   H     0.87701   0.71927   0.05433   0.00000  Uiso   1.00
H402   H     0.96903   0.74831   0.01396   0.00000  Uiso   1.00
H403   H     0.98799   0.72880   0.10092   0.00000  Uiso   1.00
H404   H     1.16583   0.09832   0.53535   0.00000  Uiso   1.00
H405   H     1.06460   0.03928   0.46718   0.00000  Uiso   1.00
H406   H     1.04803   0.01869   0.54663   0.00000  Uiso   1.00
H407   H     1.22719   0.26746   0.50806   0.00000  Uiso   1.00
H408   H     1.17255   0.34166   0.52568   0.00000  Uiso   1.00
H409   H     1.13653   0.26032   0.44249   0.00000  Uiso   1.00
H410   H     0.45876   0.40343   0.50120   0.00000  Uiso   1.00
H411   H     0.48643   0.31508   0.50276   0.00000  Uiso   1.00
H412   H     0.52378   0.38095   0.45079   0.00000  Uiso   1.00
H413   H     1.11197   0.30878   0.63951   0.00000  Uiso   1.00
H414   H     1.18284   0.25227   0.65365   0.00000  Uiso   1.00
H415   H     1.06596   0.18726   0.64478   0.00000  Uiso   1.00
H416   H     0.70579   0.36915   0.46546   0.00000  Uiso   1.00
H417   H     0.67295   0.29118   0.38073   0.00000  Uiso   1.00
H418   H     0.59254   0.32361   0.39805   0.00000  Uiso   1.00
H419   H     0.96278   0.21681   0.90060   0.00000  Uiso   1.00
H420   H     0.86675   0.17338   0.81902   0.00000  Uiso   1.00
H421   H     0.84763   0.11756   0.89278   0.00000  Uiso   1.00
H422   H     0.92608   0.37649   1.03377   0.00000  Uiso   1.00
H423   H     1.00558   0.37289   0.99626   0.00000  Uiso   1.00
H424   H     0.92342   0.26783   1.01913   0.00000  Uiso   1.00
H425   H     0.75845   0.66883   0.91122   0.00000  Uiso   1.00
H426   H     0.64013   0.61394   0.88992   0.00000  Uiso   1.00
H427   H     0.69082   0.58639   0.82407   0.00000  Uiso   1.00
H428   H     0.73930   0.29696   0.57388   0.00000  Uiso   1.00
H429   H     0.81749   0.32134   0.65923   0.00000  Uiso   1.00
H430   H     0.85988   0.37880   0.59347   0.00000  Uiso   1.00
H431   H     0.96738   0.41349   0.87811   0.00000  Uiso   1.00
H432   H     0.84952   0.40790   0.86271   0.00000  Uiso   1.00
H433   H     0.86934   0.32771   0.80363   0.00000  Uiso   1.00
H434   H     0.75921   0.52658   0.73596   0.00000  Uiso   1.00
H435   H     0.85176   0.49775   0.75779   0.00000  Uiso   1.00
H436   H     0.73387   0.40128   0.72987   0.00000  Uiso   1.00
H437   H     0.89065   0.56677   0.59193   0.00000  Uiso   1.00
H438   H     0.95220   0.58198   0.67946   0.00000  Uiso   1.00
H439   H     0.86493   0.62390   0.65276   0.00000  Uiso   1.00
H440   H     0.94654   0.90531   0.05347   0.00000  Uiso   1.00
H441   H     0.82544   0.81024  -0.00041   0.00000  Uiso   1.00
H442   H     0.84422   0.92747   0.03597   0.00000  Uiso   1.00
H443   H     0.94808   1.07768  -0.01294   0.00000  Uiso   1.00
H444   H     0.97873   1.06202  -0.09265   0.00000  Uiso   1.00
H445   H     1.05757   1.07387  -0.01639   0.00000  Uiso   1.00
H446   H     0.54234   0.85706   0.52444   0.00000  Uiso   1.00
H447   H     0.64478   0.90666   0.49302   0.00000  Uiso   1.00
H448   H     0.65862   0.92947   0.58193   0.00000  Uiso   1.00
H449   H     0.61249   0.68556   0.62497   0.00000  Uiso   1.00
H450   H     0.52878   0.71693   0.60741   0.00000  Uiso   1.00
H451   H     0.65166   0.80056   0.66368   0.00000  Uiso   1.00
H452   H     0.48791   0.84805   0.61123   0.00000  Uiso   1.00
H453   H     0.60171   0.91129   0.67434   0.00000  Uiso   1.00
H454   H     0.52708   0.96100   0.66809   0.00000  Uiso   1.00
H455   H     0.60423   0.66295   0.32523   0.00000  Uiso   1.00
H456   H     0.65991   0.78732   0.32729   0.00000  Uiso   1.00
H457   H     0.60754   0.75620   0.39118   0.00000  Uiso   1.00
H458   H     0.84081   0.91509   0.40028   0.00000  Uiso   1.00
H459   H     0.90359   0.90866   0.48146   0.00000  Uiso   1.00
H460   H     0.79825   0.91593   0.47033   0.00000  Uiso   1.00
H461   H     0.72557   0.99677   0.78657   0.00000  Uiso   1.00
H462   H     0.74707   0.92535   0.73219   0.00000  Uiso   1.00
H463   H     0.84821   1.01718   0.80177   0.00000  Uiso   1.00
H464   H     0.68809   0.84996   0.93894   0.00000  Uiso   1.00
H465   H     0.62911   0.90309   0.88049   0.00000  Uiso   1.00
H466   H     0.74504   0.97399   0.93648   0.00000  Uiso   1.00
H467   H     0.61396   0.98119   0.97843   0.00000  Uiso   1.00
H468   H     0.62400   0.89163   1.02205   0.00000  Uiso   1.00
H469   H     0.66157   1.01629   1.06664   0.00000  Uiso   1.00
H470   H     0.79567   0.81496   0.72087   0.00000  Uiso   1.00
H471   H     0.89373   0.79152   0.71782   0.00000  Uiso   1.00
H472   H     0.77121   0.70613   0.66009   0.00000  Uiso   1.00
H473   H     0.93558   1.02801   0.62574   0.00000  Uiso   1.00
H474   H     0.95564   1.00596   0.70759   0.00000  Uiso   1.00
H475   H     0.84403   0.99168   0.66693   0.00000  Uiso   1.00
loop_
_geom_bond_atom_site_label_1
_geom_bond_atom_site_label_2
_geom_bond_distance
_geom_bond_site_symmetry_2
_ccdc_geom_bond_type
Si1    O55     1.588   .     S
Si1    C60     1.840   .     S
Si1    C52     1.915   1_455 S
Si1    C143    1.837   1_455 S
Si2    C53     1.819   .     S
Si2    O62     1.598   .     S
Si2    C54     1.798   1_554 S
Si2    O101    1.578   1_554 S
Si3    O55     1.558   .     S
Si3    C56     1.878   .     S
Si3    C57     1.848   .     S
Si3    C58     1.879   .     S
Si4    C59     1.867   .     S
Si4    O99     1.626   .     S
Si4    C84     1.789   1_545 S
Si4    O88     1.660   1_545 S
Si5    C61     1.871   .     S
Si5    O62     1.562   .     S
Si5    C63     1.875   .     S
Si5    O107    1.577   .     S
Si6    C64     1.848   .     S
Si6    O66     1.597   .     S
Si6    C65     1.838   1_455 S
Si6    O161    1.597   1_455 S
Si7    O66     1.595   .     S
Si7    C67     1.898   .     S
Si7    O77     1.568   .     S
Si7    C110    1.809   .     S
Si8    C68     1.852   .     S
Si8    C69     1.900   .     S
Si8    C70     1.822   .     S
Si8    O81     1.586   .     S
Si9    C71     1.827   .     S
Si9    C72     1.924   .     S
Si9    C73     1.919   1_455 S
Si9    O187    1.577   1_455 S
Si10   C74     1.875   .     S
Si10   C75     1.840   .     S
Si10   O82     1.566   1_554 S
Si10   O139    1.602   1_554 S
Si11   C76     1.911   .     S
Si11   O77     1.559   .     S
Si11   C78     1.947   .     S
Si11   C129    1.858   .     S
Si12   C79     1.931   .     S
Si12   O86     1.596   .     S
Si12   O182    1.623   1_455 S
Si12   O196    1.575   1_455 S
Si13   C80     1.855   .     S
Si13   O81     1.648   .     S
Si13   O87     1.567   .     S
Si13   O136    1.598   .     S
Si14   O82     1.606   .     S
Si14   C83     1.835   .     S
Si14   C85     1.875   1_455 S
Si14   O177    1.595   1_455 S
Si15   O86     1.630   .     S
Si15   O87     1.639   .     S
Si15   O88     1.645   .     S
Si15   O133    1.627   .     S
Si16   C89     1.808   .     S
Si16   O106    1.590   .     S
Si16   O100    1.611   1_554 S
Si16   O149    1.623   1_554 S
Si17   C90     1.896   .     S
Si17   O96     1.614   .     S
Si17   C91     1.904   1_545 S
Si17   C132    1.921   1_545 S
Si18   C92     1.886   .     S
Si18   C93     1.872   .     S
Si18   C94     1.842   .     S
Si18   O102    1.564   .     S
Si19   C95     1.890   .     S
Si19   O96     1.619   .     S
Si19   C97     1.885   .     S
Si19   C98     1.888   .     S
Si20   O103    1.676   .     S
Si20   O147    1.630   .     S
Si20   O138    1.598   1_545 S
Si20   O142    1.623   1_545 S
Si21   O99     1.635   .     S
Si21   O100    1.658   .     S
Si21   O101    1.593   .     S
Si21   O112    1.613   .     S
Si22   O102    1.575   .     S
Si22   O103    1.650   .     S
Si22   C104    1.802   .     S
Si22   O113    1.636   .     S
Si23   C105    1.844   .     S
Si23   O106    1.598   .     S
Si23   O111    1.615   .     S
Si23   O150    1.672   .     S
Si24   O107    1.580   .     S
Si24   C108    1.868   .     S
Si24   C109    1.859   .     S
Si24   O120    1.599   .     S
Si25   O111    1.606   .     S
Si25   C121    1.923   .     S
Si25   C116    1.873   1_554 S
Si25   O171    1.585   1_554 S
Si26   O112    1.616   .     S
Si26   O113    1.600   .     S
Si26   O119    1.658   .     S
Si26   O168    1.615   .     S
Si27   C114    1.866   .     S
Si27   C115    1.820   .     S
Si27   C117    1.822   .     S
Si27   O134    1.544   .     S
Si28   C118    1.834   .     S
Si28   O119    1.643   .     S
Si28   O135    1.651   .     S
Si28   O160    1.651   .     S
Si29   O120    1.555   .     S
Si29   C122    1.899   .     S
Si29   C123    1.882   .     S
Si29   O124    1.606   .     S
Si30   O124    1.558   .     S
Si30   C125    1.913   .     S
Si30   O137    1.654   1_554 S
Si30   C195    1.893   1_554 S
Si31   C126    1.861   .     S
Si31   C127    1.880   .     S
Si31   C128    1.881   .     S
Si31   O183    1.574   .     S
Si32   C130    1.869   .     S
Si32   C131    1.784   .     S
Si32   O133    1.583   .     S
Si32   O140    1.588   .     S
Si33   O134    1.579   .     S
Si33   O135    1.676   .     S
Si33   O141    1.670   .     S
Si33   O191    1.570   .     S
Si34   O136    1.614   .     S
Si34   O137    1.564   .     S
Si34   O138    1.620   .     S
Si34   O139    1.620   .     S
Si35   O140    1.579   .     S
Si35   O141    1.671   .     S
Si35   O142    1.611   .     S
Si35   C186    1.880   .     S
Si36   C144    1.869   .     S
Si36   C145    1.932   .     S
Si36   C146    1.896   .     S
Si36   O157    1.603   .     S
Si37   O147    1.628   .     S
Si37   C148    1.851   .     S
Si37   O149    1.577   .     S
Si37   O165    1.615   .     S
Si38   O150    1.610   .     S
Si38   C151    1.919   .     S
Si38   C152    1.947   .     S
Si38   O162    1.576   .     S
Si39   C154    1.872   .     S
Si39   C155    1.898   .     S
Si39   C153    1.892   1_554 S
Si39   O169    1.630   1_554 S
Si40   C156    1.849   .     S
Si40   O157    1.563   .     S
Si40   C158    1.888   .     S
Si40   C163    1.871   .     S
Si41   C159    1.977   .     S
Si41   O160    1.651   .     S
Si41   O173    1.607   .     S
Si41   O180    1.604   .     S
Si42   O161    1.598   .     S
Si42   O162    1.578   .     S
Si42   C164    1.885   .     S
Si42   O181    1.581   .     S
Si43   O165    1.624   .     S
Si43   C166    1.878   .     S
Si43   C167    1.875   .     S
Si43   C174    1.893   .     S
Si44   O168    1.597   .     S
Si44   O169    1.589   .     S
Si44   C170    1.857   .     S
Si44   O171    1.581   .     S
Si45   C172    1.862   .     S
Si45   O173    1.537   .     S
Si45   C175    1.758   .     S
Si45   C176    1.810   .     S
Si46   C178    1.881   .     S
Si46   C179    1.784   .     S
Si46   O177    1.618   1_554 S
Si46   O192    1.569   1_554 S
Si47   O180    1.641   .     S
Si47   O181    1.649   .     S
Si47   O182    1.589   .     S
Si47   O189    1.566   .     S
Si48   O183    1.608   .     S
Si48   C184    1.827   .     S
Si48   C185    1.774   .     S
Si48   O197    1.560   .     S
Si49   O187    1.600   .     S
Si49   C188    1.886   .     S
Si49   O189    1.622   .     S
Si49   C190    1.850   .     S
Si50   O191    1.594   .     S
Si50   O192    1.578   .     S
Si50   C193    1.903   .     S
Si50   C194    1.893   .     S
Si51   O196    1.550   .     S
Si51   O197    1.630   .     S
Si51   C198    1.924   .     S
Si51   C199    1.842   .     S
C52    H200    1.067   .     S
C52    H201    1.059   .     S
C52    H202    1.089   .     S
C52    Si1     1.915   1_655 S
C53    H203    1.098   .     S
C53    H204    1.088   .     S
C53    H205    1.116   .     S
C54    H206    1.138   .     S
C54    H207    1.104   .     S
C54    H208    1.119   .     S
C54    Si2     1.798   1_556 S
C56    H209    1.152   .     S
C56    H210    1.117   .     S
C56    H211    1.065   .     S
C57    H212    1.085   .     S
C57    H213    1.100   .     S
C57    H214    1.095   .     S
C58    H215    1.165   .     S
C58    H216    1.101   .     S
C58    H217    1.106   .     S
C59    H218    1.052   .     S
C59    H219    1.082   .     S
C59    H220    1.110   .     S
C60    H221    1.203   .     S
C60    H222    1.064   .     S
C60    H223    1.137   .     S
C61    H224    1.131   .     S
C61    H225    1.130   .     S
C61    H226    1.132   .     S
C63    H227    1.086   .     S
C63    H228    1.158   .     S
C63    H229    1.114   .     S
C64    H230    1.090   .     S
C64    H231    1.112   .     S
C64    H232    1.109   .     S
C65    H233    1.117   .     S
C65    H234    1.096   .     S
C65    H235    1.029   .     S
C65    Si6     1.838   1_655 S
C67    H236    1.094   .     S
C67    H237    1.129   .     S
C67    H238    1.101   .     S
C68    H239    1.084   .     S
C68    H240    1.144   .     S
C68    H241    1.095   .     S
C69    H242    1.167   .     S
C69    H243    1.097   .     S
C69    H244    1.110   .     S
C70    H245    1.104   .     S
C70    H246    1.095   .     S
C70    H247    1.029   .     S
C71    H248    1.101   .     S
C71    H249    1.079   .     S
C71    H250    1.107   .     S
C72    H251    1.081   .     S
C72    H252    1.101   .     S
C72    H253    1.177   .     S
C73    H254    1.103   .     S
C73    H255    1.093   .     S
C73    H256    1.111   .     S
C73    Si9     1.919   1_655 S
C74    H257    1.111   .     S
C74    H258    1.096   .     S
C74    H259    1.087   .     S
C75    H260    1.120   .     S
C75    H261    1.102   .     S
C75    H262    1.098   .     S
C76    H263    1.114   .     S
C76    H264    1.116   .     S
C76    H265    1.089   .     S
C78    H266    1.121   .     S
C78    H267    1.071   .     S
C78    H268    1.160   .     S
C79    H269    1.094   .     S
C79    H270    1.139   .     S
C79    H271    1.124   .     S
C80    H272    1.132   .     S
C80    H273    1.084   .     S
C80    H274    1.066   .     S
O82    Si10    1.566   1_556 S
C83    H275    1.101   .     S
C83    H276    1.125   .     S
C83    H277    1.116   .     S
C84    H278    1.133   .     S
C84    H279    1.149   .     S
C84    H280    1.088   .     S
C84    Si4     1.789   1_565 S
C85    H281    1.124   .     S
C85    H282    1.149   .     S
C85    H283    1.116   .     S
C85    Si14    1.875   1_655 S
O88    Si4     1.660   1_565 S
C89    H284    1.087   .     S
C89    H285    1.113   .     S
C89    H286    1.108   .     S
C90    H287    1.153   .     S
C90    H288    1.078   .     S
C90    H289    1.098   .     S
C91    H290    1.125   .     S
C91    H291    1.073   .     S
C91    H292    1.139   .     S
C91    Si17    1.904   1_565 S
C92    H293    1.128   .     S
C92    H294    1.109   .     S
C92    H295    1.105   .     S
C93    H296    1.124   .     S
C93    H297    1.131   .     S
C93    H298    1.138   .     S
C94    H299    1.052   .     S
C94    H300    1.094   .     S
C94    H301    1.087   .     S
C95    H302    1.092   .     S
C95    H303    1.160   .     S
C95    H304    1.165   .     S
C97    H305    1.093   .     S
C97    H306    1.093   .     S
C97    H307    1.145   .     S
C98    H308    1.108   .     S
C98    H309    1.102   .     S
C98    H310    1.102   .     S
O100   Si16    1.611   1_556 S
O101   Si2     1.578   1_556 S
C104   H311    1.126   .     S
C104   H312    1.112   .     S
C104   H313    1.132   .     S
C105   H314    1.080   .     S
C105   H315    1.142   .     S
C105   H316    1.088   .     S
C108   H317    1.127   .     S
C108   H318    1.050   .     S
C108   H319    1.123   .     S
C109   H320    1.117   .     S
C109   H321    1.052   .     S
C109   H322    1.158   .     S
C110   H323    1.115   .     S
C110   H324    1.046   .     S
C110   H325    1.064   .     S
C114   H326    1.145   .     S
C114   H327    1.130   .     S
C114   H328    1.090   .     S
C115   H329    1.054   .     S
C115   H330    1.113   .     S
C115   H331    1.125   .     S
C116   H332    1.110   .     S
C116   H333    1.029   .     S
C116   H334    1.065   .     S
C116   Si25    1.873   1_556 S
C117   H335    1.125   .     S
C117   H336    1.118   .     S
C117   H337    1.118   .     S
C118   H338    1.133   .     S
C118   H339    1.105   .     S
C118   H340    1.156   .     S
C121   H341    1.115   .     S
C121   H342    1.112   .     S
C121   H343    1.136   .     S
C122   H344    1.096   .     S
C122   H345    1.127   .     S
C122   H346    1.127   .     S
C123   H347    1.085   .     S
C123   H348    1.083   .     S
C123   H349    1.118   .     S
C125   H350    1.086   .     S
C125   H351    1.082   .     S
C125   H352    1.102   .     S
C126   H353    1.123   .     S
C126   H354    1.095   .     S
C126   H355    1.143   .     S
C127   H356    1.125   .     S
C127   H357    1.116   .     S
C127   H358    1.133   .     S
C128   H359    1.126   .     S
C128   H360    1.111   .     S
C128   H361    1.059   .     S
C129   H362    1.088   .     S
C129   H363    1.122   .     S
C129   H364    1.108   .     S
C130   H365    1.121   .     S
C130   H366    1.082   .     S
C130   H367    1.036   .     S
C131   H368    1.091   .     S
C131   H369    1.030   .     S
C131   H370    1.077   .     S
C132   H371    1.097   .     S
C132   H372    1.069   .     S
C132   H373    1.144   .     S
C132   Si17    1.921   1_565 S
O137   Si30    1.654   1_556 S
O138   Si20    1.598   1_565 S
O139   Si10    1.602   1_556 S
O142   Si20    1.623   1_565 S
C143   H374    1.120   .     S
C143   H375    1.120   .     S
C143   H376    1.099   .     S
C143   Si1     1.837   1_655 S
C144   H377    1.112   .     S
C144   H378    1.122   .     S
C144   H379    1.074   .     S
C145   H380    1.085   .     S
C145   H381    1.108   .     S
C145   H382    1.100   .     S
C146   H383    1.134   .     S
C146   H384    1.074   .     S
C146   H385    1.079   .     S
C148   H386    1.090   .     S
C148   H387    1.128   .     S
C148   H388    1.119   .     S
O149   Si16    1.623   1_556 S
C151   H389    1.136   .     S
C151   H390    1.122   .     S
C151   H391    1.074   .     S
C152   H392    1.157   .     S
C152   H393    1.071   .     S
C152   H394    1.121   .     S
C153   H395    1.096   .     S
C153   H396    1.078   .     S
C153   H397    1.071   .     S
C153   Si39    1.892   1_556 S
C154   H398    1.086   .     S
C154   H399    1.043   .     S
C154   H400    1.103   .     S
C155   H401    1.116   .     S
C155   H402    1.131   .     S
C155   H403    1.166   .     S
C156   H404    1.090   .     S
C156   H405    1.082   .     S
C156   H406    1.134   .     S
C158   H407    1.128   .     S
C158   H408    1.129   .     S
C158   H409    1.093   .     S
C159   H410    1.110   .     S
C159   H411    1.088   .     S
C159   H412    1.071   .     S
O161   Si6     1.597   1_655 S
C163   H413    1.135   .     S
C163   H414    1.071   .     S
C163   H415    1.083   .     S
C164   H416    1.151   .     S
C164   H417    1.074   .     S
C164   H418    1.110   .     S
C166   H419    1.099   .     S
C166   H420    1.159   .     S
C166   H421    1.121   .     S
C167   H422    1.086   .     S
C167   H423    1.084   .     S
C167   H424    1.043   .     S
O169   Si39    1.630   1_556 S
C170   H425    1.083   .     S
C170   H426    1.101   .     S
C170   H427    1.143   .     S
O171   Si25    1.585   1_556 S
C172   H428    1.131   .     S
C172   H429    1.136   .     S
C172   H430    1.085   .     S
C174   H431    1.085   .     S
C174   H432    1.177   .     S
C174   H433    1.131   .     S
C175   H434    1.066   .     S
C175   H435    1.113   .     S
C175   H436    1.121   .     S
C176   H437    1.079   .     S
C176   H438    1.122   .     S
C176   H439    1.104   .     S
O177   Si14    1.595   1_655 S
O177   Si46    1.618   1_556 S
C178   H440    1.123   .     S
C178   H441    1.084   .     S
C178   H442    1.159   .     S
C179   H443    1.102   .     S
C179   H444    1.123   .     S
C179   H445    1.155   .     S
O182   Si12    1.623   1_655 S
C184   H446    1.123   .     S
C184   H447    1.116   .     S
C184   H448    1.105   .     S
C185   H449    1.021   .     S
C185   H450    1.106   .     S
C185   H451    1.105   .     S
C186   H452    1.165   .     S
C186   H453    1.003   .     S
C186   H454    1.122   .     S
O187   Si9     1.577   1_655 S
C188   H455    1.113   .     S
C188   H456    1.076   .     S
C188   H457    1.087   .     S
C190   H458    1.069   .     S
C190   H459    1.112   .     S
C190   H460    1.102   .     S
O192   Si46    1.569   1_556 S
C193   H461    1.136   .     S
C193   H462    1.075   .     S
C193   H463    1.131   .     S
C194   H464    1.146   .     S
C194   H465    1.107   .     S
C194   H466    1.099   .     S
C195   H467    1.089   .     S
C195   H468    1.136   .     S
C195   H469    1.095   .     S
C195   Si30    1.893   1_556 S
O196   Si12    1.575   1_655 S
C198   H470    1.128   .     S
C198   H471    1.133   .     S
C198   H472    1.152   .     S
C199   H473    1.132   .     S
C199   H474    1.108   .     S
C199   H475    1.023   .     S
