data_333-7-11-18-15-30-3
_audit_creation_date              2025-03-07
_audit_creation_method            'Materials Studio'
_symmetry_space_group_name_H-M    'P1'
_symmetry_Int_Tables_number       1
_symmetry_cell_setting            triclinic
loop_
_symmetry_equiv_pos_as_xyz
  x,y,z
_cell_length_a                    18.1352
_cell_length_b                    17.4833
_cell_length_c                    18.6088
_cell_angle_alpha                 89.2914
_cell_angle_beta                  94.7209
_cell_angle_gamma                 108.8110
loop_
_atom_site_label
_atom_site_type_symbol
_atom_site_fract_x
_atom_site_fract_y
_atom_site_fract_z
_atom_site_U_iso_or_equiv
_atom_site_adp_type
_atom_site_occupancy
Si1    Si    0.06980  -0.06593   0.38121   0.00000  Uiso   1.00
Si2    Si    0.04157   0.17156   0.56211   0.00000  Uiso   1.00
Si3    Si    0.02463   0.22837   0.97682   0.00000  Uiso   1.00
Si4    Si    0.16487   0.12021   0.65264   0.00000  Uiso   1.00
Si5    Si    0.26113   0.27105   0.28040   0.00000  Uiso   1.00
Si6    Si   -0.03686   0.45385   0.26349   0.00000  Uiso   1.00
Si7    Si    0.12538   0.33645   0.49884   0.00000  Uiso   1.00
Si8    Si   -0.03132   0.42638   0.55892   0.00000  Uiso   1.00
Si9    Si    0.09498   0.43763   0.36748   0.00000  Uiso   1.00
Si10   Si    0.04910   0.28513   0.82233   0.00000  Uiso   1.00
Si11   Si   -0.01541   0.53292   0.92502   0.00000  Uiso   1.00
Si12   Si    0.04654   0.41854   0.71104   0.00000  Uiso   1.00
Si13   Si    0.07953   0.56574   0.47214   0.00000  Uiso   1.00
Si14   Si   -0.02008   0.84581   0.50787   0.00000  Uiso   1.00
Si15   Si    0.05937   0.81304   0.26808   0.00000  Uiso   1.00
Si16   Si    0.07740   0.58051   0.79355   0.00000  Uiso   1.00
Si17   Si   -0.02950   0.87022   0.86085   0.00000  Uiso   1.00
Si18   Si    0.64418   0.01786   0.02610   0.00000  Uiso   1.00
Si19   Si    0.51561   0.15785   0.20439   0.00000  Uiso   1.00
Si20   Si    0.62415   0.17942  -0.01124   0.00000  Uiso   1.00
Si21   Si    0.46551   0.17438   0.92036   0.00000  Uiso   1.00
Si22   Si    0.52633   0.26980   0.68956   0.00000  Uiso   1.00
Si23   Si    0.60292   0.29392   0.10500   0.00000  Uiso   1.00
Si24   Si    0.25378   0.44395   0.31333   0.00000  Uiso   1.00
Si25   Si    0.56702   0.44226   0.03710   0.00000  Uiso   1.00
Si26   Si    0.48525   0.57959   0.54536   0.00000  Uiso   1.00
Si27   Si    0.19557   0.44076   0.63570   0.00000  Uiso   1.00
Si28   Si    0.40487   0.53653   0.39427   0.00000  Uiso   1.00
Si29   Si    0.55190   0.32941   0.84354   0.00000  Uiso   1.00
Si30   Si    0.40343   0.45242   0.98152   0.00000  Uiso   1.00
Si31   Si    0.20279   0.78623   0.21602   0.00000  Uiso   1.00
Si32   Si    0.61457   0.89473  -0.09479   0.00000  Uiso   1.00
Si33   Si    0.22955   0.70892   0.49824   0.00000  Uiso   1.00
Si34   Si    1.06079   0.36980   0.07937   0.00000  Uiso   1.00
Si35   Si    0.74053   0.21716   0.52689   0.00000  Uiso   1.00
Si36   Si    0.89715   0.19814   0.32348   0.00000  Uiso   1.00
Si37   Si    0.77098  -0.06908   0.68769   0.00000  Uiso   1.00
Si38   Si    0.72194   0.21420   0.86085   0.00000  Uiso   1.00
Si39   Si    0.91333   0.40475   0.10720   0.00000  Uiso   1.00
Si40   Si    0.70102   0.40980   0.22493   0.00000  Uiso   1.00
Si41   Si    0.84578   0.51561   0.00857   0.00000  Uiso   1.00
Si42   Si    0.87802   0.30102   0.44614   0.00000  Uiso   1.00
Si43   Si    0.82048   0.42321   0.34764   0.00000  Uiso   1.00
Si44   Si    0.68526   0.45126   0.92995   0.00000  Uiso   1.00
Si45   Si    0.86519   0.51278   0.61801   0.00000  Uiso   1.00
Si46   Si    0.84058   0.68366   0.04764   0.00000  Uiso   1.00
Si47   Si    0.65649   0.76564   0.26509   0.00000  Uiso   1.00
Si48   Si    0.82242   0.80194  -0.06687   0.00000  Uiso   1.00
Si49   Si    0.56686   0.86682   0.32913   0.00000  Uiso   1.00
Si50   Si    0.70866   0.82806   0.81156   0.00000  Uiso   1.00
Si51   Si    0.83799   0.87182   0.56564   0.00000  Uiso   1.00
C52    C    -0.00219  -0.02884   0.32649   0.00000  Uiso   1.00
C53    C     0.17380   0.01097   0.39102   0.00000  Uiso   1.00
C54    C     0.94159   0.13434   0.58744   0.00000  Uiso   1.00
C55    C     1.04567   0.09673   0.49191   0.00000  Uiso   1.00
C56    C     0.11680   0.21033   0.99278   0.00000  Uiso   1.00
O57    O     0.11133   0.17548   0.61956   0.00000  Uiso   1.00
C58    C     0.10291   0.01050   0.66576   0.00000  Uiso   1.00
C59    C     0.24415   0.11886   0.59513   0.00000  Uiso   1.00
C60    C     0.32989   0.24203   0.34495   0.00000  Uiso   1.00
C61    C     0.31693   0.29711   0.19637   0.00000  Uiso   1.00
C62    C     0.17585   0.17838   0.27111   0.00000  Uiso   1.00
C63    C     0.03188   0.55504   0.24079   0.00000  Uiso   1.00
O64    O     0.05942   0.26051   0.52880   0.00000  Uiso   1.00
C65    C     0.21057   0.30350   0.47672   0.00000  Uiso   1.00
O66    O     0.01825   0.41278   0.31244   0.00000  Uiso   1.00
O67    O     0.08877   0.36567   0.42471   0.00000  Uiso   1.00
O68    O     0.01726   0.27246   0.90216   0.00000  Uiso   1.00
C69    C     0.20768   0.15227   0.74154   0.00000  Uiso   1.00
C70    C     0.01336   0.18476   0.77755   0.00000  Uiso   1.00
C71    C     0.06682   0.58150   0.99987   0.00000  Uiso   1.00
C72    C     0.96989   0.42351   0.91315   0.00000  Uiso   1.00
O73    O    -0.00597   0.39460   0.64011   0.00000  Uiso   1.00
O74    O     0.02061   0.34815   0.77206   0.00000  Uiso   1.00
O75    O     0.04109   0.50055   0.53400   0.00000  Uiso   1.00
O76    O     0.10684   0.51859   0.41273   0.00000  Uiso   1.00
C77    C     0.04521   0.80996   0.57215   0.00000  Uiso   1.00
O78    O     0.03441   0.91262   0.45802   0.00000  Uiso   1.00
C79    C     0.91454   0.75625   0.45430   0.00000  Uiso   1.00
C80    C     0.06178   0.89080   0.19875   0.00000  Uiso   1.00
C81    C     0.00868   0.60899   0.43403   0.00000  Uiso   1.00
C82    C    -0.04016   0.73596   0.25571   0.00000  Uiso   1.00
O83    O     0.07535   0.85635   0.34435   0.00000  Uiso   1.00
O84    O     0.01182   0.57177   0.84777   0.00000  Uiso   1.00
O85    O     0.04579   0.50590   0.73630   0.00000  Uiso   1.00
C86    C     0.09492   0.67673   0.74686   0.00000  Uiso   1.00
C87    C     0.17205   0.57806   0.84104   0.00000  Uiso   1.00
C88    C    -0.02928   0.97803   0.86922   0.00000  Uiso   1.00
C89    C    -0.03617   0.83636   0.76229   0.00000  Uiso   1.00
C90    C     1.06449   0.86132   0.90273   0.00000  Uiso   1.00
C91    C     0.72316   0.00683   0.09658   0.00000  Uiso   1.00
C92    C     0.42530   0.07941   0.17175   0.00000  Uiso   1.00
C93    C     0.60050   0.12199   0.21297   0.00000  Uiso   1.00
C94    C     0.51576   0.20869   0.28930   0.00000  Uiso   1.00
O95    O     0.65597   0.11017   0.01514   0.00000  Uiso   1.00
C96    C     0.41889   0.10037   0.84367   0.00000  Uiso   1.00
O97    O     0.53313   0.14431   0.96102   0.00000  Uiso   1.00
C98    C     0.39036   0.16810   0.98555   0.00000  Uiso   1.00
C99    C     0.42642   0.28372   0.66460   0.00000  Uiso   1.00
C100   C     0.52598   0.17355   0.64555   0.00000  Uiso   1.00
O101   O     0.53404   0.22905   0.14361   0.00000  Uiso   1.00
O102   O     0.63982   0.24743   0.05318   0.00000  Uiso   1.00
O103   O     0.24526   0.34864   0.31363   0.00000  Uiso   1.00
C104   C     0.28176   0.48183   0.22441   0.00000  Uiso   1.00
O105   O     0.17022   0.45501   0.32129   0.00000  Uiso   1.00
O106   O     0.56679   0.35370   0.06142   0.00000  Uiso   1.00
C107   C     0.57824   0.50931   0.11706   0.00000  Uiso   1.00
C108   C     0.45125   0.62180   0.62651   0.00000  Uiso   1.00
C109   C     0.52558   0.50446   0.57690   0.00000  Uiso   1.00
C110   C     0.56313   0.66457   0.51070   0.00000  Uiso   1.00
O111   O     0.15416   0.40859   0.55692   0.00000  Uiso   1.00
C112   C     0.27308   0.38971   0.66257   0.00000  Uiso   1.00
C113   C     0.24312   0.55281   0.63105   0.00000  Uiso   1.00
O114   O     0.13003   0.41911   0.69132   0.00000  Uiso   1.00
O115   O     0.31491   0.49733   0.37463   0.00000  Uiso   1.00
O116   O     0.42022   0.55238   0.47935   0.00000  Uiso   1.00
C117   C     0.44222   0.63198   0.34001   0.00000  Uiso   1.00
O118   O     0.49756   0.26284   0.89279   0.00000  Uiso   1.00
O119   O     0.55525   0.28407   0.77226   0.00000  Uiso   1.00
C120   C     0.50520   0.40663   0.81691   0.00000  Uiso   1.00
C121   C     0.15543   0.31544   0.82784   0.00000  Uiso   1.00
C122   C     0.32835   0.35388   0.96162   0.00000  Uiso   1.00
O123   O     0.48627   0.43460   0.98904   0.00000  Uiso   1.00
C124   C     0.40210   0.52460   0.90574   0.00000  Uiso   1.00
C125   C     0.38263   0.49187   1.06979   0.00000  Uiso   1.00
C126   C     0.15613   0.74405   0.12503   0.00000  Uiso   1.00
C127   C     0.25923   0.72320   0.25739   0.00000  Uiso   1.00
C128   C     0.27419   0.88665   0.20524   0.00000  Uiso   1.00
C129   C     0.54494   0.96355   0.05361   0.00000  Uiso   1.00
O130   O     0.12878   0.77663   0.25802   0.00000  Uiso   1.00
C131   C     0.57865   0.80272  -0.03760   0.00000  Uiso   1.00
O132   O     0.64843   0.97455  -0.04674   0.00000  Uiso   1.00
C133   C     0.53045   0.90195   0.84537   0.00000  Uiso   1.00
O134   O     0.15070   0.63734   0.50654   0.00000  Uiso   1.00
C135   C     0.27008   0.76222   0.58511   0.00000  Uiso   1.00
C136   C     0.29648   0.65948   0.45878   0.00000  Uiso   1.00
C137   C     0.21555   0.78339   0.43016   0.00000  Uiso   1.00
O138   O     1.02023   0.28559   1.03886   0.00000  Uiso   1.00
C139   C     1.15128   0.43386   0.04149   0.00000  Uiso   1.00
C140   C     0.67760   0.27164   0.47457   0.00000  Uiso   1.00
C141   C     0.68261   0.10502   0.52246   0.00000  Uiso   1.00
C142   C     0.77205   0.25503   0.61975   0.00000  Uiso   1.00
C143   C     0.59495   0.35863   0.64479   0.00000  Uiso   1.00
C144   C     0.98935   0.19882   0.28533   0.00000  Uiso   1.00
C145   C     0.82895   0.21580   0.24885   0.00000  Uiso   1.00
C146   C     0.85174   0.09841   0.36172   0.00000  Uiso   1.00
C147   C     0.67529  -0.09191   0.64129   0.00000  Uiso   1.00
C148   C     0.80890   0.04084   0.71890   0.00000  Uiso   1.00
C149   C     0.94742   0.12839   0.98784   0.00000  Uiso   1.00
C150   C     0.66139   0.12762   0.79834   0.00000  Uiso   1.00
C151   C     0.80793   0.18651   0.90149   0.00000  Uiso   1.00
C152   C     1.08670   0.34942   1.17335   0.00000  Uiso   1.00
C153   C     0.76332   0.30775   0.81068   0.00000  Uiso   1.00
O154   O     0.67382   0.22301   0.92714   0.00000  Uiso   1.00
C155   C     0.83841   0.30971   0.07303   0.00000  Uiso   1.00
O156   O     0.99383   0.40972   0.07766   0.00000  Uiso   1.00
O157   O     0.92561   0.40220   0.19316   0.00000  Uiso   1.00
O158   O     0.67107   0.34446   0.16523   0.00000  Uiso   1.00
C159   C     0.61922   0.42359   0.27206   0.00000  Uiso   1.00
C160   C     0.45597   0.46350   0.37011   0.00000  Uiso   1.00
O161   O     0.91134   0.55019   0.95275   0.00000  Uiso   1.00
O162   O     0.88226   0.47745   0.07569   0.00000  Uiso   1.00
O163   O     0.81627   0.23155   0.48342   0.00000  Uiso   1.00
O164   O     0.91453   0.26321   0.39034   0.00000  Uiso   1.00
O165   O     0.94264   0.35501   0.50090   0.00000  Uiso   1.00
O166   O     0.89987   0.46660   0.30985   0.00000  Uiso   1.00
O167   O     0.75089   0.38435   0.28486   0.00000  Uiso   1.00
O168   O     0.82940   0.35273   0.40164   0.00000  Uiso   1.00
C169   C     0.79701   0.49873   0.39996   0.00000  Uiso   1.00
O170   O     0.63356   0.37051   0.88723   0.00000  Uiso   1.00
O171   O     0.76615   0.45172   0.97040   0.00000  Uiso   1.00
C172   C     0.70914   0.53078   0.85903   0.00000  Uiso   1.00
O173   O     0.63510   0.47755   0.98621   0.00000  Uiso   1.00
O174   O     0.90098   0.46141   0.56547   0.00000  Uiso   1.00
C175   C     0.76936   0.51844   0.58163   0.00000  Uiso   1.00
C176   C     0.85521   0.47186   0.71331   0.00000  Uiso   1.00
C177   C     0.93095   0.61592   0.62768   0.00000  Uiso   1.00
C178   C     0.76257   0.50441   0.18281   0.00000  Uiso   1.00
C179   C     0.79394   0.69286   0.12578   0.00000  Uiso   1.00
O180   O     0.82222   0.59079   0.03390   0.00000  Uiso   1.00
C181   C     0.94750   0.73410   0.05521   0.00000  Uiso   1.00
C182   C     0.67115   0.67071   0.30567   0.00000  Uiso   1.00
C183   C     0.75505   0.84502   0.25721   0.00000  Uiso   1.00
C184   C     0.60876   0.75221   0.17239   0.00000  Uiso   1.00
O185   O     0.90027   0.81363   0.90130   0.00000  Uiso   1.00
O186   O     0.80584   0.72237  -0.02053   0.00000  Uiso   1.00
C187   C     0.82155   0.88662  -0.00363   0.00000  Uiso   1.00
C188   C     0.64129   0.96874   0.32251   0.00000  Uiso   1.00
O189   O     0.60593   0.79884   0.31688   0.00000  Uiso   1.00
C190   C     0.53041   0.85821   0.42016   0.00000  Uiso   1.00
C191   C     0.48767   0.85393   0.25675   0.00000  Uiso   1.00
C192   C     0.63014   0.74185   0.76650   0.00000  Uiso   1.00
O193   O     0.75622   0.78740   0.86564   0.00000  Uiso   1.00
O194   O     0.76965   0.88011   0.75751   0.00000  Uiso   1.00
O195   O     0.67855   0.88396   0.85998   0.00000  Uiso   1.00
O196   O     0.92631   0.88411   0.55052   0.00000  Uiso   1.00
C197   C     0.79162   0.91743   0.49033   0.00000  Uiso   1.00
C198   C     0.77897   0.76437   0.57383   0.00000  Uiso   1.00
O199   O     0.83074   0.91836   0.63700   0.00000  Uiso   1.00
H200   H    -0.03012   0.00361   0.36121   0.00000  Uiso   1.00
H201   H    -0.05124  -0.07723   0.30186   0.00000  Uiso   1.00
H202   H     0.03152   0.01451   0.28719   0.00000  Uiso   1.00
H203   H     0.20326   0.00250   0.44645   0.00000  Uiso   1.00
H204   H     0.16705   0.07268   0.38939   0.00000  Uiso   1.00
H205   H     0.20554   0.00395   0.34510   0.00000  Uiso   1.00
H206   H     0.92986   0.07653   0.61411   0.00000  Uiso   1.00
H207   H     0.90231   0.13029   0.53543   0.00000  Uiso   1.00
H208   H     0.92796   0.17454   0.62693   0.00000  Uiso   1.00
H209   H     1.03145   0.12395   0.44017   0.00000  Uiso   1.00
H210   H     1.00058   0.03896   0.50629   0.00000  Uiso   1.00
H211   H     1.10222   0.08511   0.48569   0.00000  Uiso   1.00
H212   H     0.17051   0.26406   0.98664   0.00000  Uiso   1.00
H213   H     0.11625   0.17001   0.94899   0.00000  Uiso   1.00
H214   H     0.12412   0.18443   1.04725   0.00000  Uiso   1.00
H215   H     0.06660  -0.01806   0.61628   0.00000  Uiso   1.00
H216   H     0.05886   0.01049   0.70630   0.00000  Uiso   1.00
H217   H     0.14073  -0.02519   0.68165   0.00000  Uiso   1.00
H218   H     0.28235   0.18023   0.58291   0.00000  Uiso   1.00
H219   H     0.21816   0.09199   0.54127   0.00000  Uiso   1.00
H220   H     0.28369   0.09033   0.62142   0.00000  Uiso   1.00
H221   H     0.30455   0.21986   0.39758   0.00000  Uiso   1.00
H222   H     0.38359   0.29309   0.34853   0.00000  Uiso   1.00
H223   H     0.34574   0.19411   0.31756   0.00000  Uiso   1.00
H224   H     0.28779   0.33441   0.16195   0.00000  Uiso   1.00
H225   H     0.31669   0.24291   0.16803   0.00000  Uiso   1.00
H226   H     0.37989   0.34354   0.20994   0.00000  Uiso   1.00
H227   H     0.14775   0.18660   0.21673   0.00000  Uiso   1.00
H228   H     0.13349   0.17691   0.31523   0.00000  Uiso   1.00
H229   H     0.19488   0.12545   0.27047   0.00000  Uiso   1.00
H230   H     0.00625   0.58867   0.20222   0.00000  Uiso   1.00
H231   H     0.07635   0.54013   0.21314   0.00000  Uiso   1.00
H232   H     0.05567   0.59146   0.28873   0.00000  Uiso   1.00
H233   H     0.25140   0.35649   0.45666   0.00000  Uiso   1.00
H234   H     0.18657   0.25674   0.43565   0.00000  Uiso   1.00
H235   H     0.24254   0.28081   0.52296   0.00000  Uiso   1.00
H236   H     0.25234   0.21637   0.74087   0.00000  Uiso   1.00
H237   H     0.23242   0.10469   0.76342   0.00000  Uiso   1.00
H238   H     0.16421   0.15321   0.77838   0.00000  Uiso   1.00
H239   H    -0.04899   0.17376   0.76275   0.00000  Uiso   1.00
H240   H     0.03040   0.14335   0.81331   0.00000  Uiso   1.00
H241   H     0.03536   0.18596   0.72342   0.00000  Uiso   1.00
H242   H     0.06186   0.63858   1.00990   0.00000  Uiso   1.00
H243   H     0.12546   0.59229   0.98172   0.00000  Uiso   1.00
H244   H     0.05757   0.55290   1.05095   0.00000  Uiso   1.00
H245   H     1.02767   0.41613   0.91120   0.00000  Uiso   1.00
H246   H     0.93723   0.39858   0.86394   0.00000  Uiso   1.00
H247   H     0.93570   0.38686   0.95454   0.00000  Uiso   1.00
H248   H     0.10133   0.86057   0.58629   0.00000  Uiso   1.00
H249   H     0.05721   0.76071   0.54265   0.00000  Uiso   1.00
H250   H     0.01753   0.78088   0.62387   0.00000  Uiso   1.00
H251   H     0.95204   0.73101   0.42668   0.00000  Uiso   1.00
H252   H     0.87853   0.78244   0.41271   0.00000  Uiso   1.00
H253   H     0.87400   0.71465   0.48805   0.00000  Uiso   1.00
H254   H     0.09604   0.95235   0.21750   0.00000  Uiso   1.00
H255   H     0.00499   0.89494   0.18420   0.00000  Uiso   1.00
H256   H     0.08103   0.87923   0.14725   0.00000  Uiso   1.00
H257   H    -0.03410   0.56010   0.40466   0.00000  Uiso   1.00
H258   H     0.02875   0.65823   0.39500   0.00000  Uiso   1.00
H259   H    -0.01920   0.62687   0.48069   0.00000  Uiso   1.00
H260   H    -0.07920   0.77080   0.25921   0.00000  Uiso   1.00
H261   H    -0.04740   0.69670   0.30069   0.00000  Uiso   1.00
H262   H    -0.04533   0.71169   0.20133   0.00000  Uiso   1.00
H263   H     0.14395   0.72506   0.77617   0.00000  Uiso   1.00
H264   H     0.03995   0.69419   0.74704   0.00000  Uiso   1.00
H265   H     0.11815   0.67193   0.69387   0.00000  Uiso   1.00
H266   H     0.21352   0.58275   0.79746   0.00000  Uiso   1.00
H267   H     0.15680   0.51414   0.86553   0.00000  Uiso   1.00
H268   H     0.19140   0.62546   0.88367   0.00000  Uiso   1.00
H269   H     0.01650   1.01585   0.83804   0.00000  Uiso   1.00
H270   H    -0.00550   0.99704   0.92456   0.00000  Uiso   1.00
H271   H    -0.08818   0.98085   0.84993   0.00000  Uiso   1.00
H272   H    -0.09079   0.84225   0.73208   0.00000  Uiso   1.00
H273   H    -0.03931   0.76986   0.75742   0.00000  Uiso   1.00
H274   H     0.01710   0.87116   0.73733   0.00000  Uiso   1.00
H275   H     1.11531   0.91282   0.88692   0.00000  Uiso   1.00
H276   H     1.07492   0.80366   0.88741   0.00000  Uiso   1.00
H277   H     1.06583   0.86554   0.96211   0.00000  Uiso   1.00
H278   H     0.71347  -0.05372   0.12120   0.00000  Uiso   1.00
H279   H     0.71694   0.04392   0.14351   0.00000  Uiso   1.00
H280   H     0.78142   0.03145   0.08090   0.00000  Uiso   1.00
H281   H     0.40695   0.03551   0.21451   0.00000  Uiso   1.00
H282   H     0.43856   0.04965   0.12497   0.00000  Uiso   1.00
H283   H     0.37408   0.10096   0.15917   0.00000  Uiso   1.00
H284   H     0.57943   0.05753   0.22378   0.00000  Uiso   1.00
H285   H     0.64356   0.15084   0.26004   0.00000  Uiso   1.00
H286   H     0.62957   0.13725   0.16380   0.00000  Uiso   1.00
H287   H     0.47762   0.15980   0.32185   0.00000  Uiso   1.00
H288   H     0.48552   0.25244   0.27526   0.00000  Uiso   1.00
H289   H     0.57725   0.23960   0.31595   0.00000  Uiso   1.00
H290   H     0.37984   0.04200   0.86013   0.00000  Uiso   1.00
H291   H     0.46869   0.09991   0.81216   0.00000  Uiso   1.00
H292   H     0.37828   0.12477   0.81110   0.00000  Uiso   1.00
H293   H     0.41523   0.21713   1.02607   0.00000  Uiso   1.00
H294   H     0.37188   0.10983   1.01614   0.00000  Uiso   1.00
H295   H     0.33470   0.17750   0.95967   0.00000  Uiso   1.00
H296   H     0.42135   0.34096   0.67632   0.00000  Uiso   1.00
H297   H     0.38029   0.23276   0.68919   0.00000  Uiso   1.00
H298   H     0.41228   0.28510   0.60500   0.00000  Uiso   1.00
H299   H     0.50563   0.17669   0.58721   0.00000  Uiso   1.00
H300   H     0.47875   0.12295   0.66996   0.00000  Uiso   1.00
H301   H     0.58050   0.15917   0.65050   0.00000  Uiso   1.00
H302   H     0.24878   0.43956   0.17835   0.00000  Uiso   1.00
H303   H     0.34555   0.49150   0.22608   0.00000  Uiso   1.00
H304   H     0.26514   0.53509   0.21519   0.00000  Uiso   1.00
H305   H     0.58449   0.57410   0.09962   0.00000  Uiso   1.00
H306   H     0.62790   0.51134   0.15417   0.00000  Uiso   1.00
H307   H     0.52547   0.48379   0.14693   0.00000  Uiso   1.00
H308   H     0.41567   0.66445   0.61034   0.00000  Uiso   1.00
H309   H     0.50162   0.65604   0.66378   0.00000  Uiso   1.00
H310   H     0.40489   0.57380   0.65155   0.00000  Uiso   1.00
H311   H     0.56901   0.53590   0.61968   0.00000  Uiso   1.00
H312   H     0.55391   0.48775   0.53230   0.00000  Uiso   1.00
H313   H     0.47618   0.45472   0.59829   0.00000  Uiso   1.00
H314   H     0.53586   0.71486   0.50760   0.00000  Uiso   1.00
H315   H     0.57735   0.65073   0.45453   0.00000  Uiso   1.00
H316   H     0.61553   0.68414   0.54867   0.00000  Uiso   1.00
H317   H     0.30713   0.39224   0.61552   0.00000  Uiso   1.00
H318   H     0.24502   0.32485   0.68127   0.00000  Uiso   1.00
H319   H     0.31440   0.41404   0.71059   0.00000  Uiso   1.00
H320   H     0.27816   0.55785   0.58311   0.00000  Uiso   1.00
H321   H     0.26870   0.57197   0.68680   0.00000  Uiso   1.00
H322   H     0.19018   0.57237   0.61840   0.00000  Uiso   1.00
H323   H     0.47290   0.62714   0.29171   0.00000  Uiso   1.00
H324   H     0.48123   0.67734   0.37748   0.00000  Uiso   1.00
H325   H     0.39420   0.65377   0.32644   0.00000  Uiso   1.00
H326   H     0.44256   0.37015   0.80254   0.00000  Uiso   1.00
H327   H     0.53335   0.43597   0.76819   0.00000  Uiso   1.00
H328   H     0.50720   0.45427   0.85839   0.00000  Uiso   1.00
H329   H     0.16656   0.31066   0.76871   0.00000  Uiso   1.00
H330   H     0.18331   0.27482   0.85432   0.00000  Uiso   1.00
H331   H     0.18666   0.37164   0.85861   0.00000  Uiso   1.00
H332   H     0.27443   0.36343   0.94343   0.00000  Uiso   1.00
H333   H     0.32208   0.31289   1.00705   0.00000  Uiso   1.00
H334   H     0.34487   0.32326   0.91624   0.00000  Uiso   1.00
H335   H     0.45811   0.57880   0.90531   0.00000  Uiso   1.00
H336   H     0.34694   0.53831   0.89840   0.00000  Uiso   1.00
H337   H     0.40195   0.49152   0.85729   0.00000  Uiso   1.00
H338   H     0.39021   0.45013   1.11307   0.00000  Uiso   1.00
H339   H     0.32800   0.50088   1.06676   0.00000  Uiso   1.00
H340   H     0.42629   0.55308   1.08872   0.00000  Uiso   1.00
H341   H     0.15078   0.67953   0.12952   0.00000  Uiso   1.00
H342   H     0.19672   0.78030   0.08514   0.00000  Uiso   1.00
H343   H     0.09773   0.74789   0.11409   0.00000  Uiso   1.00
H344   H     0.30073   0.71604   0.21619   0.00000  Uiso   1.00
H345   H     0.22245   0.66137   0.27189   0.00000  Uiso   1.00
H346   H     0.29563   0.74974   0.30986   0.00000  Uiso   1.00
H347   H     0.25025   0.92591   0.17741   0.00000  Uiso   1.00
H348   H     0.32578   0.88250   0.18063   0.00000  Uiso   1.00
H349   H     0.29436   0.91367   0.25981   0.00000  Uiso   1.00
H350   H     0.54272   0.99174   0.10320   0.00000  Uiso   1.00
H351   H     0.53537   0.89879   0.06251   0.00000  Uiso   1.00
H352   H     0.50159   0.97488   0.00990   0.00000  Uiso   1.00
H353   H     0.52884   0.80461  -0.01377   0.00000  Uiso   1.00
H354   H     0.62339   0.80443   0.00347   0.00000  Uiso   1.00
H355   H     0.56367   0.74613  -0.07187   0.00000  Uiso   1.00
H356   H     0.54272   0.94984   0.80921   0.00000  Uiso   1.00
H357   H     0.49043   0.91393   0.88130   0.00000  Uiso   1.00
H358   H     0.49948   0.84316   0.81258   0.00000  Uiso   1.00
H359   H     0.32127   0.74604   0.60511   0.00000  Uiso   1.00
H360   H     0.22346   0.73807   0.62374   0.00000  Uiso   1.00
H361   H     0.28390   0.82864   0.58294   0.00000  Uiso   1.00
H362   H     0.30460   0.66900   0.40443   0.00000  Uiso   1.00
H363   H     0.27418   0.59213   0.46360   0.00000  Uiso   1.00
H364   H     0.35632   0.67663   0.49179   0.00000  Uiso   1.00
H365   H     0.18355   0.74501   0.38269   0.00000  Uiso   1.00
H366   H     0.26856   0.82414   0.41447   0.00000  Uiso   1.00
H367   H     0.17656   0.81628   0.44886   0.00000  Uiso   1.00
H368   H     1.18596   0.39463   0.02970   0.00000  Uiso   1.00
H369   H     1.18227   0.48454   0.08076   0.00000  Uiso   1.00
H370   H     1.13550   0.46554  -0.00703   0.00000  Uiso   1.00
H371   H     0.70335   0.33442   0.48193   0.00000  Uiso   1.00
H372   H     0.61862   0.24579   0.49423   0.00000  Uiso   1.00
H373   H     0.67426   0.25517   0.41472   0.00000  Uiso   1.00
H374   H     0.69778   0.08997   0.47081   0.00000  Uiso   1.00
H375   H     0.61989   0.09025   0.52013   0.00000  Uiso   1.00
H376   H     0.70958   0.07311   0.56482   0.00000  Uiso   1.00
H377   H     0.80762   0.22013   0.64662   0.00000  Uiso   1.00
H378   H     0.71874   0.24672   0.65164   0.00000  Uiso   1.00
H379   H     0.80234   0.32049   0.61862   0.00000  Uiso   1.00
H380   H     0.59111   0.41160   0.67311   0.00000  Uiso   1.00
H381   H     0.57250   0.36636   0.58732   0.00000  Uiso   1.00
H382   H     0.65329   0.35531   0.65715   0.00000  Uiso   1.00
H383   H     1.03072   0.26102   0.29421   0.00000  Uiso   1.00
H384   H     0.97807   0.17981   0.22630   0.00000  Uiso   1.00
H385   H     1.01529   0.15750   0.31712   0.00000  Uiso   1.00
H386   H     0.79052   0.15984   0.21498   0.00000  Uiso   1.00
H387   H     0.86698   0.25805   0.21693   0.00000  Uiso   1.00
H388   H     0.79235   0.24607   0.27567   0.00000  Uiso   1.00
H389   H     0.80376   0.10684   0.39056   0.00000  Uiso   1.00
H390   H     0.89691   0.08217   0.40005   0.00000  Uiso   1.00
H391   H     0.82344   0.05293   0.31601   0.00000  Uiso   1.00
H392   H     0.63838  -0.06575   0.66719   0.00000  Uiso   1.00
H393   H     0.65015  -0.15802   0.63573   0.00000  Uiso   1.00
H394   H     0.68283  -0.06631   0.58583   0.00000  Uiso   1.00
H395   H     0.76747   0.04546   0.75963   0.00000  Uiso   1.00
H396   H     0.79547   0.07951   0.67975   0.00000  Uiso   1.00
H397   H     0.87204   0.05845   0.74106   0.00000  Uiso   1.00
H398   H     0.89305   0.14044   1.00347   0.00000  Uiso   1.00
H399   H     0.96340   0.08382   1.02395   0.00000  Uiso   1.00
H400   H     0.94195   0.10170   0.93300   0.00000  Uiso   1.00
H401   H     0.68260   0.11440   0.74721   0.00000  Uiso   1.00
H402   H     0.61129   0.14658   0.78074   0.00000  Uiso   1.00
H403   H     0.65223   0.07413   0.82804   0.00000  Uiso   1.00
H404   H     0.84711   0.22781   0.94222   0.00000  Uiso   1.00
H405   H     0.85035   0.18770   0.85862   0.00000  Uiso   1.00
H406   H     0.78861   0.12335   0.92111   0.00000  Uiso   1.00
H407   H     1.10964   0.41041   1.19637   0.00000  Uiso   1.00
H408   H     1.12673   0.31244   1.18033   0.00000  Uiso   1.00
H409   H     1.03069   0.31243   1.19151   0.00000  Uiso   1.00
H410   H     0.71680   0.32777   0.78594   0.00000  Uiso   1.00
H411   H     0.80069   0.30148   0.76751   0.00000  Uiso   1.00
H412   H     0.79966   0.35211   0.84736   0.00000  Uiso   1.00
H413   H     0.87383   0.26537   0.07235   0.00000  Uiso   1.00
H414   H     0.81493   0.31498   0.01446   0.00000  Uiso   1.00
H415   H     0.79114   0.29151   0.10824   0.00000  Uiso   1.00
H416   H     0.56815   0.41154   0.23307   0.00000  Uiso   1.00
H417   H     0.63463   0.48648   0.28738   0.00000  Uiso   1.00
H418   H     0.61052   0.38179   0.31926   0.00000  Uiso   1.00
H419   H     0.44924   0.41346   0.40910   0.00000  Uiso   1.00
H420   H     0.52202   0.49183   0.37172   0.00000  Uiso   1.00
H421   H     0.42852   0.42741   0.32183   0.00000  Uiso   1.00
H422   H     0.73942   0.47692   0.42064   0.00000  Uiso   1.00
H423   H     0.79987   0.54815   0.36308   0.00000  Uiso   1.00
H424   H     0.84427   0.51674   0.44200   0.00000  Uiso   1.00
H425   H     0.72992   0.51203   0.80870   0.00000  Uiso   1.00
H426   H     0.75651   0.58592   0.88124   0.00000  Uiso   1.00
H427   H     0.65328   0.54122   0.84305   0.00000  Uiso   1.00
H428   H     0.73493   0.53866   0.62194   0.00000  Uiso   1.00
H429   H     0.72865   0.46143   0.56274   0.00000  Uiso   1.00
H430   H     0.78376   0.56175   0.53441   0.00000  Uiso   1.00
H431   H     0.79477   0.42101   0.71645   0.00000  Uiso   1.00
H432   H     0.85683   0.52345   0.74984   0.00000  Uiso   1.00
H433   H     0.90150   0.44468   0.73556   0.00000  Uiso   1.00
H434   H     0.92795   0.64263   0.68132   0.00000  Uiso   1.00
H435   H     0.90987   0.65502   0.58262   0.00000  Uiso   1.00
H436   H     0.98950   0.61363   0.62026   0.00000  Uiso   1.00
H437   H     0.82039   0.49474   0.18218   0.00000  Uiso   1.00
H438   H     0.77171   0.55835   0.21520   0.00000  Uiso   1.00
H439   H     0.73933   0.50286   0.12843   0.00000  Uiso   1.00
H440   H     0.79397   0.75097   0.13749   0.00000  Uiso   1.00
H441   H     0.82462   0.67008   0.16859   0.00000  Uiso   1.00
H442   H     0.73575   0.65020   0.11103   0.00000  Uiso   1.00
H443   H     0.95516   0.79512   0.07997   0.00000  Uiso   1.00
H444   H     0.96060   0.73282  -0.00097   0.00000  Uiso   1.00
H445   H     0.96935   0.69385   0.08336   0.00000  Uiso   1.00
H446   H     0.70739   0.64816   0.27332   0.00000  Uiso   1.00
H447   H     0.61544   0.62472   0.30298   0.00000  Uiso   1.00
H448   H     0.70512   0.68496   0.35825   0.00000  Uiso   1.00
H449   H     0.80055   0.82930   0.28902   0.00000  Uiso   1.00
H450   H     0.75600   0.90322   0.27718   0.00000  Uiso   1.00
H451   H     0.76608   0.84945   0.20184   0.00000  Uiso   1.00
H452   H     0.60879   0.81385   0.15816   0.00000  Uiso   1.00
H453   H     0.55119   0.70756   0.16378   0.00000  Uiso   1.00
H454   H     0.65052   0.73833   0.14035   0.00000  Uiso   1.00
H455   H     0.88008   0.91514   0.02358   0.00000  Uiso   1.00
H456   H     0.77554   0.86110   0.03141   0.00000  Uiso   1.00
H457   H     0.81099   0.94008  -0.03486   0.00000  Uiso   1.00
H458   H     0.68968   0.96108   0.35564   0.00000  Uiso   1.00
H459   H     0.61454   1.00775   0.35387   0.00000  Uiso   1.00
H460   H     0.66647   0.98926   0.27216   0.00000  Uiso   1.00
H461   H     0.47663   0.80011   0.42235   0.00000  Uiso   1.00
H462   H     0.51158   0.91129   0.44035   0.00000  Uiso   1.00
H463   H     0.57650   0.85215   0.46241   0.00000  Uiso   1.00
H464   H     0.51107   0.88545   0.20595   0.00000  Uiso   1.00
H465   H     0.44105   0.87532   0.27299   0.00000  Uiso   1.00
H466   H     0.46087   0.78698   0.24293   0.00000  Uiso   1.00
H467   H     0.65024   0.70912   0.72763   0.00000  Uiso   1.00
H468   H     0.58364   0.76506   0.73762   0.00000  Uiso   1.00
H469   H     0.59637   0.69903   0.80705   0.00000  Uiso   1.00
H470   H     0.81477   0.91157   0.43969   0.00000  Uiso   1.00
H471   H     0.80568   0.98433   0.50167   0.00000  Uiso   1.00
H472   H     0.72733   0.88461   0.48116   0.00000  Uiso   1.00
H473   H     0.82195   0.73591   0.60152   0.00000  Uiso   1.00
H474   H     0.75514   0.73034   0.52272   0.00000  Uiso   1.00
H475   H     0.72711   0.75755   0.60580   0.00000  Uiso   1.00
loop_
_geom_bond_atom_site_label_1
_geom_bond_atom_site_label_2
_geom_bond_distance
_geom_bond_site_symmetry_2
_ccdc_geom_bond_type
Si1    C52     1.864   .     S
Si1    C53     1.927   .     S
Si1    O78     1.606   1_545 S
Si1    O83     1.565   1_545 S
Si2    O57     1.572   .     S
Si2    O64     1.610   .     S
Si2    C54     1.818   1_455 S
Si2    C55     1.883   1_455 S
Si3    C56     1.799   .     S
Si3    O68     1.597   .     S
Si3    O138    1.560   1_455 S
Si3    C149    1.876   1_455 S
Si4    O57     1.657   .     S
Si4    C58     1.909   .     S
Si4    C59     1.868   .     S
Si4    C69     1.785   .     S
Si5    C60     1.844   .     S
Si5    C61     1.903   .     S
Si5    C62     1.842   .     S
Si5    O103    1.615   .     S
Si6    C63     1.873   .     S
Si6    O66     1.625   .     S
Si6    O157    1.574   1_455 S
Si6    O166    1.563   1_455 S
Si7    O64     1.604   .     S
Si7    C65     1.890   .     S
Si7    O67     1.630   .     S
Si7    O111    1.596   .     S
Si8    O73     1.683   .     S
Si8    O75     1.615   .     S
Si8    O165    1.586   1_455 S
Si8    O174    1.552   1_455 S
Si9    O66     1.600   .     S
Si9    O67     1.620   .     S
Si9    O76     1.601   .     S
Si9    O105    1.616   .     S
Si10   O68     1.625   .     S
Si10   C70     1.846   .     S
Si10   O74     1.618   .     S
Si10   C121    1.822   .     S
Si11   C71     1.938   .     S
Si11   O84     1.627   .     S
Si11   C72     1.858   1_455 S
Si11   O161    1.580   1_455 S
Si12   O73     1.541   .     S
Si12   O74     1.645   .     S
Si12   O85     1.608   .     S
Si12   O114    1.584   .     S
Si13   O75     1.642   .     S
Si13   O76     1.588   .     S
Si13   C81     1.786   .     S
Si13   O134    1.576   .     S
Si14   C77     1.858   .     S
Si14   O78     1.607   .     S
Si14   C79     1.870   1_455 S
Si14   O196    1.607   1_455 S
Si15   C80     1.855   .     S
Si15   C82     1.870   .     S
Si15   O83     1.578   .     S
Si15   O130    1.607   .     S
Si16   O84     1.591   .     S
Si16   O85     1.618   .     S
Si16   C86     1.830   .     S
Si16   C87     1.878   .     S
Si17   C88     1.892   .     S
Si17   C89     1.917   .     S
Si17   C90     1.867   1_455 S
Si17   O185    1.579   1_455 S
Si18   C91     1.916   .     S
Si18   O95     1.571   .     S
Si18   C129    1.855   1_545 S
Si18   O132    1.580   1_545 S
Si19   C92     1.828   .     S
Si19   C93     1.835   .     S
Si19   C94     1.822   .     S
Si19   O101    1.643   .     S
Si20   O95     1.558   .     S
Si20   O102    1.641   .     S
Si20   O97     1.607   1_554 S
Si20   O154    1.553   1_554 S
Si21   C96     1.889   .     S
Si21   O97     1.614   .     S
Si21   C98     1.874   .     S
Si21   O118    1.563   .     S
Si22   C99     1.924   .     S
Si22   C100    1.878   .     S
Si22   O119    1.581   .     S
Si22   C143    1.883   .     S
Si23   O101    1.605   .     S
Si23   O102    1.586   .     S
Si23   O106    1.585   .     S
Si23   O158    1.630   .     S
Si24   O103    1.623   .     S
Si24   C104    1.825   .     S
Si24   O105    1.607   .     S
Si24   O115    1.598   .     S
Si25   O106    1.607   .     S
Si25   C107    1.862   .     S
Si25   O123    1.620   1_554 S
Si25   O173    1.578   1_554 S
Si26   C108    1.918   .     S
Si26   C109    1.770   .     S
Si26   C110    1.841   .     S
Si26   O116    1.594   .     S
Si27   O111    1.611   .     S
Si27   C112    1.925   .     S
Si27   C113    1.873   .     S
Si27   O114    1.591   .     S
Si28   O115    1.566   .     S
Si28   O116    1.597   .     S
Si28   C117    1.899   .     S
Si28   C160    1.881   .     S
Si29   O118    1.596   .     S
Si29   O119    1.569   .     S
Si29   C120    1.854   .     S
Si29   O170    1.581   .     S
Si30   C122    1.838   .     S
Si30   O123    1.625   .     S
Si30   C124    1.885   .     S
Si30   C125    1.901   .     S
Si31   C126    1.876   .     S
Si31   C127    1.852   .     S
Si31   C128    1.835   .     S
Si31   O130    1.570   .     S
Si32   C131    1.882   .     S
Si32   O132    1.585   .     S
Si32   C133    1.851   1_554 S
Si32   O195    1.548   1_554 S
Si33   O134    1.585   .     S
Si33   C135    1.850   .     S
Si33   C136    1.897   .     S
Si33   C137    1.867   .     S
Si34   C139    1.852   .     S
Si34   O156    1.582   .     S
Si34   O138    1.586   1_554 S
Si34   C152    1.834   1_554 S
Si35   C140    1.911   .     S
Si35   C141    1.901   .     S
Si35   C142    1.836   .     S
Si35   O163    1.600   .     S
Si36   C144    1.866   .     S
Si36   C145    1.873   .     S
Si36   C146    1.834   .     S
Si36   O164    1.637   .     S
Si37   C147    1.798   .     S
Si37   C148    1.901   .     S
Si37   O194    1.562   1_545 S
Si37   O199    1.562   1_545 S
Si38   C150    1.900   .     S
Si38   C151    1.877   .     S
Si38   C153    1.843   .     S
Si38   O154    1.605   .     S
Si39   C155    1.855   .     S
Si39   O156    1.578   .     S
Si39   O157    1.599   .     S
Si39   O162    1.633   .     S
Si40   O158    1.538   .     S
Si40   C159    1.865   .     S
Si40   O167    1.530   .     S
Si40   C178    1.875   .     S
Si41   O162    1.603   .     S
Si41   O180    1.595   .     S
Si41   O161    1.607   1_554 S
Si41   O171    1.627   1_554 S
Si42   O163    1.562   .     S
Si42   O164    1.538   .     S
Si42   O165    1.555   .     S
Si42   O168    1.630   .     S
Si43   O166    1.610   .     S
Si43   O167    1.626   .     S
Si43   O168    1.620   .     S
Si43   C169    1.826   .     S
Si44   O170    1.599   .     S
Si44   O171    1.590   .     S
Si44   C172    1.877   .     S
Si44   O173    1.604   .     S
Si45   O174    1.639   .     S
Si45   C175    1.845   .     S
Si45   C176    1.905   .     S
Si45   C177    1.814   .     S
Si46   C179    1.775   .     S
Si46   O180    1.569   .     S
Si46   C181    1.847   .     S
Si46   O186    1.608   .     S
Si47   C182    1.902   .     S
Si47   C183    1.892   .     S
Si47   C184    1.848   .     S
Si47   O189    1.615   .     S
Si48   O186    1.585   .     S
Si48   C187    1.907   .     S
Si48   O185    1.528   1_554 S
Si48   O193    1.627   1_554 S
Si49   C188    1.866   .     S
Si49   O189    1.595   .     S
Si49   C190    1.855   .     S
Si49   C191    1.846   .     S
Si50   C192    1.858   .     S
Si50   O193    1.580   .     S
Si50   O194    1.605   .     S
Si50   O195    1.585   .     S
Si51   O196    1.594   .     S
Si51   C197    1.876   .     S
Si51   C198    1.850   .     S
Si51   O199    1.602   .     S
C52    H200    1.115   .     S
C52    H201    1.084   .     S
C52    H202    1.115   .     S
C53    H203    1.152   .     S
C53    H204    1.124   .     S
C53    H205    1.098   .     S
C54    H206    1.086   .     S
C54    H207    1.142   .     S
C54    H208    1.118   .     S
C54    Si2     1.818   1_655 S
C55    H209    1.117   .     S
C55    H210    1.121   .     S
C55    H211    1.123   .     S
C55    Si2     1.883   1_655 S
C56    H212    1.127   .     S
C56    H213    1.081   .     S
C56    H214    1.120   .     S
C58    H215    1.109   .     S
C58    H216    1.143   .     S
C58    H217    1.089   .     S
C59    H218    1.106   .     S
C59    H219    1.113   .     S
C59    H220    1.081   .     S
C60    H221    1.127   .     S
C60    H222    1.086   .     S
C60    H223    1.111   .     S
C61    H224    1.127   .     S
C61    H225    1.089   .     S
C61    H226    1.177   .     S
C62    H227    1.124   .     S
C62    H228    1.164   .     S
C62    H229    1.087   .     S
C63    H230    1.090   .     S
C63    H231    1.091   .     S
C63    H232    1.078   .     S
C65    H233    1.068   .     S
C65    H234    1.083   .     S
C65    H235    1.137   .     S
C69    H236    1.152   .     S
C69    H237    1.123   .     S
C69    H238    1.091   .     S
C70    H239    1.096   .     S
C70    H240    1.078   .     S
C70    H241    1.111   .     S
C71    H242    1.051   .     S
C71    H243    1.099   .     S
C71    H244    1.069   .     S
C72    H245    1.100   .     S
C72    H246    1.065   .     S
C72    H247    1.095   .     S
C72    Si11    1.858   1_655 S
C77    H248    1.126   .     S
C77    H249    1.115   .     S
C77    H250    1.157   .     S
O78    Si1     1.606   1_565 S
C79    H251    1.085   .     S
C79    H252    1.156   .     S
C79    H253    1.088   .     S
C79    Si14    1.870   1_655 S
C80    H254    1.099   .     S
C80    H255    1.068   .     S
C80    H256    1.089   .     S
C81    H257    1.070   .     S
C81    H258    1.108   .     S
C81    H259    1.135   .     S
C82    H260    1.079   .     S
C82    H261    1.065   .     S
C82    H262    1.087   .     S
O83    Si1     1.565   1_565 S
C86    H263    1.118   .     S
C86    H264    1.133   .     S
C86    H265    1.118   .     S
C87    H266    1.135   .     S
C87    H267    1.159   .     S
C87    H268    1.106   .     S
C88    H269    1.086   .     S
C88    H270    1.095   .     S
C88    H271    1.115   .     S
C89    H272    1.131   .     S
C89    H273    1.150   .     S
C89    H274    1.099   .     S
C90    H275    1.118   .     S
C90    H276    1.128   .     S
C90    H277    1.106   .     S
C90    Si17    1.867   1_655 S
C91    H278    1.115   .     S
C91    H279    1.128   .     S
C91    H280    1.068   .     S
C92    H281    1.094   .     S
C92    H282    1.101   .     S
C92    H283    1.117   .     S
C93    H284    1.089   .     S
C93    H285    1.130   .     S
C93    H286    1.081   .     S
C94    H287    1.118   .     S
C94    H288    1.094   .     S
C94    H289    1.144   .     S
C96    H290    1.095   .     S
C96    H291    1.119   .     S
C96    H292    1.102   .     S
O97    Si20    1.607   1_556 S
C98    H293    1.103   .     S
C98    H294    1.127   .     S
C98    H295    1.142   .     S
C99    H296    1.061   .     S
C99    H297    1.129   .     S
C99    H298    1.119   .     S
C100   H299    1.124   .     S
C100   H300    1.135   .     S
C100   H301    1.093   .     S
C104   H302    1.133   .     S
C104   H303    1.112   .     S
C104   H304    1.075   .     S
C107   H305    1.147   .     S
C107   H306    1.080   .     S
C107   H307    1.109   .     S
C108   H308    1.156   .     S
C108   H309    1.108   .     S
C108   H310    1.108   .     S
C109   H311    1.088   .     S
C109   H312    1.100   .     S
C109   H313    1.125   .     S
C110   H314    1.138   .     S
C110   H315    1.144   .     S
C110   H316    1.098   .     S
C112   H317    1.105   .     S
C112   H318    1.146   .     S
C112   H319    1.111   .     S
C113   H320    1.124   .     S
C113   H321    1.110   .     S
C113   H322    1.126   .     S
C117   H323    1.113   .     S
C117   H324    1.089   .     S
C117   H325    1.069   .     S
C120   H326    1.121   .     S
C120   H327    1.114   .     S
C120   H328    1.133   .     S
C121   H329    1.144   .     S
C121   H330    1.088   .     S
C121   H331    1.103   .     S
C122   H332    1.071   .     S
C122   H333    1.091   .     S
C122   H334    1.116   .     S
O123   Si25    1.620   1_556 S
C124   H335    1.145   .     S
C124   H336    1.099   .     S
C124   H337    1.076   .     S
C125   H338    1.110   .     S
C125   H339    1.049   .     S
C125   H340    1.146   .     S
C126   H341    1.103   .     S
C126   H342    1.128   .     S
C126   H343    1.085   .     S
C127   H344    1.152   .     S
C127   H345    1.115   .     S
C127   H346    1.145   .     S
C128   H347    1.036   .     S
C128   H348    1.098   .     S
C128   H349    1.108   .     S
C129   H350    1.061   .     S
C129   H351    1.101   .     S
C129   H352    1.145   .     S
C129   Si18    1.855   1_565 S
C131   H353    1.048   .     S
C131   H354    1.061   .     S
C131   H355    1.128   .     S
O132   Si18    1.580   1_565 S
C133   H356    1.046   .     S
C133   H357    1.095   .     S
C133   H358    1.154   .     S
C133   Si32    1.851   1_556 S
C135   H359    1.091   .     S
C135   H360    1.128   .     S
C135   H361    1.107   .     S
C136   H362    1.038   .     S
C136   H363    1.120   .     S
C136   H364    1.153   .     S
C137   H365    1.117   .     S
C137   H366    1.057   .     S
C137   H367    1.122   .     S
O138   Si3     1.560   1_655 S
O138   Si34    1.586   1_556 S
C139   H368    1.104   .     S
C139   H369    1.123   .     S
C139   H370    1.119   .     S
C140   H371    1.051   .     S
C140   H372    1.109   .     S
C140   H373    1.146   .     S
C141   H374    1.079   .     S
C141   H375    1.079   .     S
C141   H376    1.129   .     S
C142   H377    1.110   .     S
C142   H378    1.144   .     S
C142   H379    1.099   .     S
C143   H380    1.095   .     S
C143   H381    1.135   .     S
C143   H382    1.084   .     S
C144   H383    1.109   .     S
C144   H384    1.135   .     S
C144   H385    1.121   .     S
C145   H386    1.159   .     S
C145   H387    1.050   .     S
C145   H388    1.121   .     S
C146   H389    1.108   .     S
C146   H390    1.144   .     S
C146   H391    1.141   .     S
C147   H392    1.070   .     S
C147   H393    1.100   .     S
C147   H394    1.121   .     S
C148   H395    1.131   .     S
C148   H396    1.055   .     S
C148   H397    1.129   .     S
C149   H398    1.133   .     S
C149   H399    1.115   .     S
C149   H400    1.111   .     S
C149   Si3     1.876   1_655 S
C150   H401    1.109   .     S
C150   H402    1.089   .     S
C150   H403    1.053   .     S
C151   H404    1.093   .     S
C151   H405    1.149   .     S
C151   H406    1.112   .     S
C152   H407    1.091   .     S
C152   H408    1.117   .     S
C152   H409    1.092   .     S
C152   Si34    1.834   1_556 S
C153   H410    1.081   .     S
C153   H411    1.121   .     S
C153   H412    1.054   .     S
O154   Si20    1.553   1_556 S
C155   H413    1.156   .     S
C155   H414    1.151   .     S
C155   H415    1.085   .     S
O157   Si6     1.574   1_655 S
C159   H416    1.094   .     S
C159   H417    1.079   .     S
C159   H418    1.124   .     S
C160   H419    1.112   .     S
C160   H420    1.137   .     S
C160   H421    1.091   .     S
O161   Si11    1.580   1_655 S
O161   Si41    1.607   1_556 S
O165   Si8     1.586   1_655 S
O166   Si6     1.563   1_655 S
C169   H422    1.091   .     S
C169   H423    1.088   .     S
C169   H424    1.081   .     S
O171   Si41    1.627   1_556 S
C172   H425    1.128   .     S
C172   H426    1.121   .     S
C172   H427    1.103   .     S
O173   Si25    1.578   1_556 S
O174   Si8     1.552   1_655 S
C175   H428    1.142   .     S
C175   H429    1.074   .     S
C175   H430    1.143   .     S
C176   H431    1.173   .     S
C176   H432    1.128   .     S
C176   H433    1.139   .     S
C177   H434    1.120   .     S
C177   H435    1.191   .     S
C177   H436    1.095   .     S
C178   H437    1.116   .     S
C178   H438    1.085   .     S
C178   H439    1.061   .     S
C179   H440    1.042   .     S
C179   H441    1.079   .     S
C179   H442    1.093   .     S
C181   H443    1.130   .     S
C181   H444    1.093   .     S
C181   H445    1.031   .     S
C182   H446    1.090   .     S
C182   H447    1.067   .     S
C182   H448    1.099   .     S
C183   H449    1.081   .     S
C183   H450    1.082   .     S
C183   H451    1.063   .     S
C184   H452    1.106   .     S
C184   H453    1.084   .     S
C184   H454    1.088   .     S
O185   Si17    1.579   1_655 S
O185   Si48    1.528   1_556 S
C187   H455    1.099   .     S
C187   H456    1.078   .     S
C187   H457    1.154   .     S
C188   H458    1.074   .     S
C188   H459    1.145   .     S
C188   H460    1.082   .     S
C190   H461    1.163   .     S
C190   H462    1.163   .     S
C190   H463    1.129   .     S
C191   H464    1.131   .     S
C191   H465    1.093   .     S
C191   H466    1.137   .     S
C192   H467    1.082   .     S
C192   H468    1.142   .     S
C192   H469    1.128   .     S
O193   Si48    1.627   1_556 S
O194   Si37    1.562   1_565 S
O195   Si32    1.548   1_556 S
O196   Si14    1.607   1_655 S
C197   H470    1.082   .     S
C197   H471    1.132   .     S
C197   H472    1.121   .     S
C198   H473    1.140   .     S
C198   H474    1.107   .     S
C198   H475    1.127   .     S
O199   Si37    1.562   1_565 S
