data_333-7-11-18-15-30-2
_audit_creation_date              2025-03-07
_audit_creation_method            'Materials Studio'
_symmetry_space_group_name_H-M    'P1'
_symmetry_Int_Tables_number       1
_symmetry_cell_setting            triclinic
loop_
_symmetry_equiv_pos_as_xyz
  x,y,z
_cell_length_a                    17.8508
_cell_length_b                    16.8021
_cell_length_c                    20.3950
_cell_angle_alpha                 90.1566
_cell_angle_beta                  83.7631
_cell_angle_gamma                 121.5190
loop_
_atom_site_label
_atom_site_type_symbol
_atom_site_fract_x
_atom_site_fract_y
_atom_site_fract_z
_atom_site_U_iso_or_equiv
_atom_site_adp_type
_atom_site_occupancy
Si1    Si    0.08460   0.04717   0.19473   0.00000  Uiso   1.00
Si2    Si    0.13941  -0.01162   0.46213   0.00000  Uiso   1.00
Si3    Si    0.16172   0.08423   0.32829   0.00000  Uiso   1.00
Si4    Si    0.18581  -0.00019   0.73486   0.00000  Uiso   1.00
Si5    Si    0.19455   0.16489   0.65577   0.00000  Uiso   1.00
Si6    Si    0.14590   0.50544  -0.09547   0.00000  Uiso   1.00
Si7    Si   -0.00799   0.52235   0.56069   0.00000  Uiso   1.00
Si8    Si    0.16815   0.25767   0.77467   0.00000  Uiso   1.00
Si9    Si   -0.19630   0.34000   0.98202   0.00000  Uiso   1.00
Si10   Si    0.22288   0.67234  -0.00992   0.00000  Uiso   1.00
Si11   Si    0.05061   0.70705   0.32568   0.00000  Uiso   1.00
Si12   Si    0.21728   0.84921  -0.05664   0.00000  Uiso   1.00
Si13   Si    0.17657   0.67202   0.51107   0.00000  Uiso   1.00
Si14   Si   -0.03977   0.88552   0.54434   0.00000  Uiso   1.00
Si15   Si    0.15523   0.81766   0.43549   0.00000  Uiso   1.00
Si16   Si    0.18548   0.83534   0.67021   0.00000  Uiso   1.00
Si17   Si    0.34929   0.17865   0.24946   0.00000  Uiso   1.00
Si18   Si    0.29987   0.15560   0.52964   0.00000  Uiso   1.00
Si19   Si    0.48784   0.22413   0.34152   0.00000  Uiso   1.00
Si20   Si    0.45342   0.01204   0.69948   0.00000  Uiso   1.00
Si21   Si    0.43349   0.12335   0.59231   0.00000  Uiso   1.00
Si22   Si    0.40067   0.30365   0.12281   0.00000  Uiso   1.00
Si23   Si    0.33128   0.46808   0.33883   0.00000  Uiso   1.00
Si24   Si    0.47307   0.50605   0.09191   0.00000  Uiso   1.00
Si25   Si    0.46544   0.33937   0.45434   0.00000  Uiso   1.00
Si26   Si    0.50480   0.53298   0.39117   0.00000  Uiso   1.00
Si27   Si    0.46160   0.42725   0.83666   0.00000  Uiso   1.00
Si28   Si    0.18473   0.44718   0.76989   0.00000  Uiso   1.00
Si29   Si    0.60711   0.70216   0.12550   0.00000  Uiso   1.00
Si30   Si    0.52298   0.71201   0.44857   0.00000  Uiso   1.00
Si31   Si    0.32466   0.81156   0.58383   0.00000  Uiso   1.00
Si32   Si    0.58339   0.84512   0.32249   0.00000  Uiso   1.00
Si33   Si    0.51470   0.76304   0.77058   0.00000  Uiso   1.00
Si34   Si    0.33524   0.88171   0.82061   0.00000  Uiso   1.00
Si35   Si    0.48357   0.85396   0.65535   0.00000  Uiso   1.00
Si36   Si    0.90379  -0.07019   0.14370   0.00000  Uiso   1.00
Si37   Si    0.86373   0.21078   0.22400   0.00000  Uiso   1.00
Si38   Si    0.91109   0.01818   0.01369   0.00000  Uiso   1.00
Si39   Si    0.61721   0.18619   0.51775   0.00000  Uiso   1.00
Si40   Si    0.91200   0.27537   0.36149   0.00000  Uiso   1.00
Si41   Si    0.60550   0.15286   0.77409   0.00000  Uiso   1.00
Si42   Si    0.65188   0.53231   0.30343   0.00000  Uiso   1.00
Si43   Si    0.84400   0.50493   0.07253   0.00000  Uiso   1.00
Si44   Si    0.56342   0.46535   0.55988   0.00000  Uiso   1.00
Si45   Si    0.65960   0.56072   0.81730   0.00000  Uiso   1.00
Si46   Si    0.72065   0.83057   0.22647   0.00000  Uiso   1.00
Si47   Si    0.62685   0.84329   0.55387   0.00000  Uiso   1.00
Si48   Si    0.83242   0.85098   0.33512   0.00000  Uiso   1.00
Si49   Si    0.78365   0.72071   0.71582   0.00000  Uiso   1.00
Si50   Si    0.65553   0.88784   0.85978   0.00000  Uiso   1.00
Si51   Si    0.78322   0.85227   0.60773   0.00000  Uiso   1.00
C52    C     0.13201  -0.00478   0.13107   0.00000  Uiso   1.00
O53    O     0.10259   0.03192   0.26999   0.00000  Uiso   1.00
O54    O     0.15109   0.01102   0.38374   0.00000  Uiso   1.00
C55    C     0.10981   0.14725   0.36748   0.00000  Uiso   1.00
C56    C     0.27127   0.07753   0.78874   0.00000  Uiso   1.00
C57    C     0.08148   0.91445   0.78807   0.00000  Uiso   1.00
C58    C     0.10316   0.15908   0.61986   0.00000  Uiso   1.00
O59    O     0.16492   0.06088   0.68815   0.00000  Uiso   1.00
C60    C     0.12078   0.40243  -0.04014   0.00000  Uiso   1.00
C61    C    -0.06939   0.52321   0.64001   0.00000  Uiso   1.00
C62    C     0.95636   0.55460   0.48674   0.00000  Uiso   1.00
C63    C     0.98407   0.40771   0.55237   0.00000  Uiso   1.00
C64    C     0.18586   0.21617   0.85454   0.00000  Uiso   1.00
O65    O     0.21639   0.24060   0.71206   0.00000  Uiso   1.00
C66    C     0.04488   0.17995   0.78196   0.00000  Uiso   1.00
C67    C    -0.13919   0.27048   0.97059   0.00000  Uiso   1.00
C68    C     0.05085   0.51384   0.88948   0.00000  Uiso   1.00
C69    C    -0.18753   0.40181   0.90241   0.00000  Uiso   1.00
C70    C     0.67984   0.25036   1.01279   0.00000  Uiso   1.00
C71    C     0.13086   0.59910   0.05599   0.00000  Uiso   1.00
O72    O     0.21536   0.60220  -0.06517   0.00000  Uiso   1.00
C73    C     0.33103   0.72345   0.02491   0.00000  Uiso   1.00
C74    C     0.10482   0.63613   0.30103   0.00000  Uiso   1.00
C75    C     0.92998   0.62070   0.33365   0.00000  Uiso   1.00
O76    O     0.20136   0.74531  -0.04481   0.00000  Uiso   1.00
C77    C     0.29160   0.93109   0.00097   0.00000  Uiso   1.00
C78    C     0.10397   0.83832   0.95610   0.00000  Uiso   1.00
O79    O     0.09522   0.60041   0.56123   0.00000  Uiso   1.00
C80    C     0.18628   0.60696   0.44021   0.00000  Uiso   1.00
O81    O     0.03975   0.95539   0.49459   0.00000  Uiso   1.00
C82    C     0.92998   0.76634   0.53131   0.00000  Uiso   1.00
O83    O     0.07389   0.75516   0.39419   0.00000  Uiso   1.00
O84    O     0.15963   0.75049   0.48732   0.00000  Uiso   1.00
O85    O     0.15079   0.90121   0.47217   0.00000  Uiso   1.00
C86    C     0.25757   0.87213   0.37844   0.00000  Uiso   1.00
C87    C     0.00895   0.91898   0.62160   0.00000  Uiso   1.00
C88    C     0.10828   0.80541   0.61171   0.00000  Uiso   1.00
C89    C     0.12777   0.74880   0.73988   0.00000  Uiso   1.00
O90    O     0.21771   0.94052   0.69278   0.00000  Uiso   1.00
C91    C     0.34080   0.06760   0.22005   0.00000  Uiso   1.00
O92    O     0.26388   0.15323   0.29954   0.00000  Uiso   1.00
O93    O     0.21423   0.08150   0.49630   0.00000  Uiso   1.00
O94    O     0.26975   0.19303   0.59420   0.00000  Uiso   1.00
O95    O     0.43455   0.23676   0.28989   0.00000  Uiso   1.00
C96    C     0.42050   0.10494   0.38312   0.00000  Uiso   1.00
O97    O     0.35461   0.11038   0.55206   0.00000  Uiso   1.00
O98    O     0.42317   0.04175   0.63786   0.00000  Uiso   1.00
O99    O     0.35282   0.24808   0.19245   0.00000  Uiso   1.00
C100   C     0.31845   0.26140   0.06223   0.00000  Uiso   1.00
C101   C     0.31011   0.36400   0.29073   0.00000  Uiso   1.00
C102   C     0.26418   0.42600   0.42443   0.00000  Uiso   1.00
O103   O     0.43763   0.41013   0.13153   0.00000  Uiso   1.00
O104   O     0.36481   0.24847   0.47890   0.00000  Uiso   1.00
O105   O     0.50679   0.30069   0.39791   0.00000  Uiso   1.00
O106   O     0.43556   0.52455   0.34590   0.00000  Uiso   1.00
O107   O     0.46297   0.42935   0.42667   0.00000  Uiso   1.00
C108   C     0.38233   0.44808   0.88494   0.00000  Uiso   1.00
C109   C     0.45646   0.22116   0.64490   0.00000  Uiso   1.00
C110   C     0.45860   0.32161   0.86908   0.00000  Uiso   1.00
C111   C     0.43212   0.41283   0.75325   0.00000  Uiso   1.00
O112   O     0.20425   0.36559   0.78148   0.00000  Uiso   1.00
C113   C     0.27542   0.53593   0.70655   0.00000  Uiso   1.00
C114   C     0.37981   0.51189   1.06637   0.00000  Uiso   1.00
O115   O     0.19348   0.50209   0.83514   0.00000  Uiso   1.00
C116   C     0.30099   0.54131   0.29259   0.00000  Uiso   1.00
C117   C     0.55271   0.76797   0.10345   0.00000  Uiso   1.00
O118   O     0.53045   0.59254   0.13468   0.00000  Uiso   1.00
C119   C     0.69052   0.72078   0.05430   0.00000  Uiso   1.00
C120   C     0.40774   0.68795   0.44641   0.00000  Uiso   1.00
O121   O     0.51983   0.61233   0.44194   0.00000  Uiso   1.00
O122   O     0.26127   0.72126   0.54968   0.00000  Uiso   1.00
C123   C     0.38541   0.90755   0.51914   0.00000  Uiso   1.00
O124   O     0.26771   0.83062   0.64008   0.00000  Uiso   1.00
C125   C     0.48566   0.77551   0.28200   0.00000  Uiso   1.00
O126   O     0.58004   0.78214   0.38626   0.00000  Uiso   1.00
C127   C     0.57872   0.95085   0.34658   0.00000  Uiso   1.00
C128   C     0.07290   0.40369   0.74283   0.00000  Uiso   1.00
C129   C     0.44173   0.69175   0.83947   0.00000  Uiso   1.00
C130   C     0.55065   0.69306   0.72675   0.00000  Uiso   1.00
C131   C     0.28652   0.75816   0.79668   0.00000  Uiso   1.00
C132   C     0.42860   0.90913   0.87145   0.00000  Uiso   1.00
O133   O     0.37294   0.94974   0.75579   0.00000  Uiso   1.00
O134   O     0.25913   0.88425   0.86930   0.00000  Uiso   1.00
O135   O     0.39511   0.79879   0.61783   0.00000  Uiso   1.00
O136   O     0.46942   0.79778   0.72183   0.00000  Uiso   1.00
O137   O     0.49560   0.95272   0.67550   0.00000  Uiso   1.00
O138   O     0.98036  -0.01124   0.18878   0.00000  Uiso   1.00
C139   C     0.90504   0.82304   0.12549   0.00000  Uiso   1.00
C140   C     0.74703   0.11574   0.22859   0.00000  Uiso   1.00
C141   C     0.92871   0.17188   0.16990   0.00000  Uiso   1.00
C142   C     0.88165   0.32631   0.19035   0.00000  Uiso   1.00
C143   C     0.59469   0.24273   0.29646   0.00000  Uiso   1.00
C144   C     0.91707  -0.05479   0.94407   0.00000  Uiso   1.00
O145   O     0.93045  -0.01057   0.07980   0.00000  Uiso   1.00
C146   C     0.99347   0.14492  -0.00549   0.00000  Uiso   1.00
C147   C     0.62698   0.13467   0.43833   0.00000  Uiso   1.00
C148   C     0.65043   0.13022   0.57754   0.00000  Uiso   1.00
C149   C     0.68480   0.31223   0.52088   0.00000  Uiso   1.00
O150   O     0.51576   0.15270   0.53892   0.00000  Uiso   1.00
C151   C     1.13069   0.17465   0.17491   0.00000  Uiso   1.00
C152   C     1.02993   0.35906   0.36255   0.00000  Uiso   1.00
O153   O     0.89495   0.21937   0.29388   0.00000  Uiso   1.00
C154   C     0.87562   0.18283   0.42933   0.00000  Uiso   1.00
C155   C     0.85264   0.34056   0.36703   0.00000  Uiso   1.00
O156   O     0.52448   0.10359   0.73329   0.00000  Uiso   1.00
C157   C     0.66790   0.09597   0.77232   0.00000  Uiso   1.00
C158   C     0.80039   0.00565   1.02467   0.00000  Uiso   1.00
C159   C     0.68736   0.27283   0.73709   0.00000  Uiso   1.00
C160   C     0.56590   0.16565   0.86316   0.00000  Uiso   1.00
C161   C     0.49449   0.29230   0.08947   0.00000  Uiso   1.00
C162   C     0.57380   0.44719   0.25147   0.00000  Uiso   1.00
C163   C     0.70334   0.48954   0.35631   0.00000  Uiso   1.00
C164   C     0.74559   0.62675   0.24049   0.00000  Uiso   1.00
O165   O     0.59539   0.56379   0.34846   0.00000  Uiso   1.00
O166   O     0.84184   0.41629   1.03498   0.00000  Uiso   1.00
C167   C     0.73060   0.48996   0.08119   0.00000  Uiso   1.00
C168   C     0.88815   0.52702   0.15621   0.00000  Uiso   1.00
O169   O     0.52669   0.37929   0.51229   0.00000  Uiso   1.00
C170   C     0.60760   0.45570   0.63334   0.00000  Uiso   1.00
C171   C     0.66058   0.56971   0.51426   0.00000  Uiso   1.00
C172   C     0.47361   0.49167   0.57698   0.00000  Uiso   1.00
O173   O     0.55900   0.51380   0.83733   0.00000  Uiso   1.00
C174   C     0.67802   0.46468   0.79035   0.00000  Uiso   1.00
C175   C     0.90866   0.60809   1.01596   0.00000  Uiso   1.00
C176   C     0.71866   0.60519   0.89216   0.00000  Uiso   1.00
C177   C     0.53445   0.50334   1.01878   0.00000  Uiso   1.00
O178   O     0.64738   0.73855   0.19404   0.00000  Uiso   1.00
O179   O     0.80732   0.90458   0.17715   0.00000  Uiso   1.00
O180   O     0.66591   0.87087   0.26697   0.00000  Uiso   1.00
O181   O     0.55976   0.75649   0.51487   0.00000  Uiso   1.00
C182   C     0.68790   0.94915   0.49500   0.00000  Uiso   1.00
O183   O     0.57171   0.86228   0.61429   0.00000  Uiso   1.00
C184   C     1.07994   0.79450   0.25218   0.00000  Uiso   1.00
C185   C     0.92917   0.83615   0.32509   0.00000  Uiso   1.00
O186   O     0.76345   0.80517   0.28178   0.00000  Uiso   1.00
C187   C     0.77009   0.79365   0.41839   0.00000  Uiso   1.00
C188   C     0.87677   0.97792   0.33563   0.00000  Uiso   1.00
O189   O     0.69200   0.64174   0.76059   0.00000  Uiso   1.00
C190   C     0.84852   0.65986   0.69325   0.00000  Uiso   1.00
C191   C     0.84668   0.81702   0.77095   0.00000  Uiso   1.00
O192   O     0.59585   0.85314   0.79987   0.00000  Uiso   1.00
C193   C     0.65401   0.79043   0.89945   0.00000  Uiso   1.00
C194   C     0.76913   0.98880   0.83449   0.00000  Uiso   1.00
C195   C     0.60422   0.93044   0.92371   0.00000  Uiso   1.00
O196   O     0.86878   0.88739   0.55503   0.00000  Uiso   1.00
O197   O     0.69920   0.82275   0.57583   0.00000  Uiso   1.00
O198   O     0.76664   0.76339   0.65310   0.00000  Uiso   1.00
C199   C     0.80761   0.95377   0.65445   0.00000  Uiso   1.00
H200   H     0.20741   0.03464   0.12304   0.00000  Uiso   1.00
H201   H     0.10749   0.00173   0.08540   0.00000  Uiso   1.00
H202   H     0.10185  -0.07935   0.14340   0.00000  Uiso   1.00
H203   H     0.04911   0.10122   0.40132   0.00000  Uiso   1.00
H204   H     0.09438   0.17811   0.32738   0.00000  Uiso   1.00
H205   H     0.16590   0.20511   0.39251   0.00000  Uiso   1.00
H206   H     0.32868   0.06581   0.78067   0.00000  Uiso   1.00
H207   H     0.24203   0.06192   0.84271   0.00000  Uiso   1.00
H208   H     0.29796   0.15286   0.77157   0.00000  Uiso   1.00
H209   H     0.03721   0.94125   0.79850   0.00000  Uiso   1.00
H210   H     0.09782   0.88621   0.82974   0.00000  Uiso   1.00
H211   H     0.05456   0.86109   0.75052   0.00000  Uiso   1.00
H212   H     0.03340   0.11328   0.64092   0.00000  Uiso   1.00
H213   H     0.11620   0.14312   0.56769   0.00000  Uiso   1.00
H214   H     0.11568   0.22852   0.61433   0.00000  Uiso   1.00
H215   H     0.07799   0.39229   0.00488   0.00000  Uiso   1.00
H216   H     0.18570   0.41925  -0.02877   0.00000  Uiso   1.00
H217   H     0.08939   0.33778  -0.06817   0.00000  Uiso   1.00
H218   H    -0.06023   0.48681   0.68205   0.00000  Uiso   1.00
H219   H    -0.14498   0.48681   0.64408   0.00000  Uiso   1.00
H220   H    -0.04332   0.59567   0.65464   0.00000  Uiso   1.00
H221   H     0.95654   0.61830   0.49388   0.00000  Uiso   1.00
H222   H     0.89057   0.49571   0.47528   0.00000  Uiso   1.00
H223   H     1.00166   0.56729   0.44321   0.00000  Uiso   1.00
H224   H     0.94209   0.37007   0.51150   0.00000  Uiso   1.00
H225   H     0.95075   0.36410   0.60045   0.00000  Uiso   1.00
H226   H     1.05190   0.41996   0.53599   0.00000  Uiso   1.00
H227   H     0.25920   0.24163   0.85045   0.00000  Uiso   1.00
H228   H     0.14710   0.14289   0.86580   0.00000  Uiso   1.00
H229   H     0.17426   0.25699   0.89403   0.00000  Uiso   1.00
H230   H     0.01991   0.21437   0.81573   0.00000  Uiso   1.00
H231   H     0.02025   0.10718   0.79301   0.00000  Uiso   1.00
H232   H     0.03160   0.19401   0.72910   0.00000  Uiso   1.00
H233   H    -0.15390   0.22974   1.01586   0.00000  Uiso   1.00
H234   H    -0.06674   0.32384   0.95511   0.00000  Uiso   1.00
H235   H    -0.16752   0.22266   0.93045   0.00000  Uiso   1.00
H236   H     0.00822   0.45327   0.86570   0.00000  Uiso   1.00
H237   H     0.08045   0.58290   0.86272   0.00000  Uiso   1.00
H238   H     0.01527   0.51223   0.93817   0.00000  Uiso   1.00
H239   H    -0.15881   0.38328   0.85995   0.00000  Uiso   1.00
H240   H    -0.14278   0.47934   0.91116   0.00000  Uiso   1.00
H241   H    -0.24946   0.38808   0.89319   0.00000  Uiso   1.00
H242   H     0.64333   0.28245   0.99423   0.00000  Uiso   1.00
H243   H     0.65553   0.23974   1.06602   0.00000  Uiso   1.00
H244   H     0.65908   0.18202   0.99146   0.00000  Uiso   1.00
H245   H     0.14500   0.64277   0.09952   0.00000  Uiso   1.00
H246   H     0.12412   0.52677   0.06509   0.00000  Uiso   1.00
H247   H     0.07243   0.58941   0.03654   0.00000  Uiso   1.00
H248   H     0.35823   0.80015   0.03578   0.00000  Uiso   1.00
H249   H     0.37943   0.72114  -0.01341   0.00000  Uiso   1.00
H250   H     0.32810   0.69001   0.07059   0.00000  Uiso   1.00
H251   H     0.17318   0.67101   0.31534   0.00000  Uiso   1.00
H252   H     0.10700   0.62919   0.24669   0.00000  Uiso   1.00
H253   H     0.06145   0.56766   0.32735   0.00000  Uiso   1.00
H254   H     0.90490   0.63445   0.38246   0.00000  Uiso   1.00
H255   H     0.91489   0.54877   0.32863   0.00000  Uiso   1.00
H256   H     0.90447   0.63988   0.29384   0.00000  Uiso   1.00
H257   H     0.28773   0.99428  -0.00471   0.00000  Uiso   1.00
H258   H     0.35613   0.93511  -0.00890   0.00000  Uiso   1.00
H259   H     0.26546   0.90032   0.05341   0.00000  Uiso   1.00
H260   H     0.06455   0.78342   0.92503   0.00000  Uiso   1.00
H261   H     0.09846   0.90008   0.94777   0.00000  Uiso   1.00
H262   H     0.07030   0.81174   1.00637   0.00000  Uiso   1.00
H263   H     0.12453   0.57240   0.42002   0.00000  Uiso   1.00
H264   H     0.20024   0.55137   0.45946   0.00000  Uiso   1.00
H265   H     0.23765   0.65959   0.40157   0.00000  Uiso   1.00
H266   H     0.98384   0.75600   0.54183   0.00000  Uiso   1.00
H267   H     0.91955   0.74856   0.47920   0.00000  Uiso   1.00
H268   H     0.86653   0.72066   0.56480   0.00000  Uiso   1.00
H269   H     0.25022   0.91467   0.34244   0.00000  Uiso   1.00
H270   H     0.25999   0.81091   0.35730   0.00000  Uiso   1.00
H271   H     0.31585   0.91606   0.40490   0.00000  Uiso   1.00
H272   H     0.08283   0.95818   0.60963   0.00000  Uiso   1.00
H273   H    -0.01258   0.86357   0.65843   0.00000  Uiso   1.00
H274   H    -0.00846   0.96676   0.64490   0.00000  Uiso   1.00
H275   H     0.09230   0.74022   0.59379   0.00000  Uiso   1.00
H276   H     0.13780   0.87001   0.57776   0.00000  Uiso   1.00
H277   H     0.04880   0.79148   0.63459   0.00000  Uiso   1.00
H278   H     0.13424   0.68736   0.73525   0.00000  Uiso   1.00
H279   H     0.05336   0.71605   0.74359   0.00000  Uiso   1.00
H280   H     0.15061   0.77889   0.78631   0.00000  Uiso   1.00
H281   H     0.29339   0.02836   0.18545   0.00000  Uiso   1.00
H282   H     0.32602   0.01838   0.26199   0.00000  Uiso   1.00
H283   H     0.40994   0.09046   0.19960   0.00000  Uiso   1.00
H284   H     0.45319   0.09871   0.42501   0.00000  Uiso   1.00
H285   H     0.43040   0.05617   0.35227   0.00000  Uiso   1.00
H286   H     0.35431   0.09193   0.39739   0.00000  Uiso   1.00
H287   H     0.35339   0.28973   0.01203   0.00000  Uiso   1.00
H288   H     0.27158   0.28823   0.08033   0.00000  Uiso   1.00
H289   H     0.28337   0.18544   0.06381   0.00000  Uiso   1.00
H290   H     0.37057   0.38665   0.25551   0.00000  Uiso   1.00
H291   H     0.24729   0.33350   0.27118   0.00000  Uiso   1.00
H292   H     0.30566   0.31328   0.33031   0.00000  Uiso   1.00
H293   H     0.19467   0.39372   0.42171   0.00000  Uiso   1.00
H294   H     0.28146   0.48621   0.45308   0.00000  Uiso   1.00
H295   H     0.27688   0.37529   0.44806   0.00000  Uiso   1.00
H296   H     0.35267   0.47259   0.84996   0.00000  Uiso   1.00
H297   H     0.41680   0.50590   0.91629   0.00000  Uiso   1.00
H298   H     0.33495   0.37849   0.91217   0.00000  Uiso   1.00
H299   H     0.52581   0.26518   0.64096   0.00000  Uiso   1.00
H300   H     0.43193   0.20176   0.69829   0.00000  Uiso   1.00
H301   H     0.42917   0.26252   0.62883   0.00000  Uiso   1.00
H302   H     0.39547   0.26265   0.88422   0.00000  Uiso   1.00
H303   H     0.50578   0.34303   0.90899   0.00000  Uiso   1.00
H304   H     0.48867   0.30618   0.82606   0.00000  Uiso   1.00
H305   H     0.43769   0.35842   0.73106   0.00000  Uiso   1.00
H306   H     0.48934   0.47761   0.72117   0.00000  Uiso   1.00
H307   H     0.35897   0.38433   0.75204   0.00000  Uiso   1.00
H308   H     0.33259   0.53691   0.72293   0.00000  Uiso   1.00
H309   H     0.26513   0.59602   0.70767   0.00000  Uiso   1.00
H310   H     0.26947   0.51153   0.65515   0.00000  Uiso   1.00
H311   H     0.35007   0.53232   1.10556   0.00000  Uiso   1.00
H312   H     0.33007   0.45303   1.04179   0.00000  Uiso   1.00
H313   H     0.40714   0.57938   1.03022   0.00000  Uiso   1.00
H314   H     0.30891   0.60526   0.31499   0.00000  Uiso   1.00
H315   H     0.22874   0.49020   0.28147   0.00000  Uiso   1.00
H316   H     0.34433   0.56824   0.24450   0.00000  Uiso   1.00
H317   H     0.55569   0.78444   0.04959   0.00000  Uiso   1.00
H318   H     0.59278   0.83888   0.12374   0.00000  Uiso   1.00
H319   H     0.48602   0.72723   0.12936   0.00000  Uiso   1.00
H320   H     0.74738   0.79546   0.04426   0.00000  Uiso   1.00
H321   H     0.65730   0.69969   0.00828   0.00000  Uiso   1.00
H322   H     0.71174   0.67350   0.06169   0.00000  Uiso   1.00
H323   H     0.40713   0.75227   0.44191   0.00000  Uiso   1.00
H324   H     0.36068   0.64446   0.48903   0.00000  Uiso   1.00
H325   H     0.38311   0.65477   0.40145   0.00000  Uiso   1.00
H326   H     0.34486   0.93686   0.50762   0.00000  Uiso   1.00
H327   H     0.40567   0.88710   0.47204   0.00000  Uiso   1.00
H328   H     0.44878   0.96583   0.53486   0.00000  Uiso   1.00
H329   H     0.47339   0.70591   0.27206   0.00000  Uiso   1.00
H330   H     0.49941   0.81088   0.23202   0.00000  Uiso   1.00
H331   H     0.43032   0.77224   0.30953   0.00000  Uiso   1.00
H332   H     0.64744   1.00665   0.35775   0.00000  Uiso   1.00
H333   H     0.53364   0.92188   0.39211   0.00000  Uiso   1.00
H334   H     0.55618   0.97008   0.30469   0.00000  Uiso   1.00
H335   H     0.01866   0.35322   0.77321   0.00000  Uiso   1.00
H336   H     0.07300   0.37622   0.69247   0.00000  Uiso   1.00
H337   H     0.06806   0.46682   0.73846   0.00000  Uiso   1.00
H338   H     0.41769   0.72503   0.87395   0.00000  Uiso   1.00
H339   H     0.47463   0.66464   0.86939   0.00000  Uiso   1.00
H340   H     0.38779   0.62806   0.82103   0.00000  Uiso   1.00
H341   H     0.49736   0.64063   0.70127   0.00000  Uiso   1.00
H342   H     0.57064   0.65725   0.76091   0.00000  Uiso   1.00
H343   H     0.60999   0.73814   0.68827   0.00000  Uiso   1.00
H344   H     0.32652   0.73049   0.81063   0.00000  Uiso   1.00
H345   H     0.28337   0.75365   0.74258   0.00000  Uiso   1.00
H346   H     0.22393   0.71077   0.82407   0.00000  Uiso   1.00
H347   H     0.49069   0.91653   0.84196   0.00000  Uiso   1.00
H348   H     0.40057   0.84843   0.91097   0.00000  Uiso   1.00
H349   H     0.44482   0.97375   0.89409   0.00000  Uiso   1.00
H350   H     0.97247   0.84633   0.10098   0.00000  Uiso   1.00
H351   H     0.85125   0.76259   0.09722   0.00000  Uiso   1.00
H352   H     0.90250   0.79208   0.17261   0.00000  Uiso   1.00
H353   H     0.72695   0.10003   0.17965   0.00000  Uiso   1.00
H354   H     0.70530   0.13999   0.25932   0.00000  Uiso   1.00
H355   H     0.73720   0.05604   0.26055   0.00000  Uiso   1.00
H356   H     0.92397   0.11272   0.19852   0.00000  Uiso   1.00
H357   H     0.99561   0.22897   0.14972   0.00000  Uiso   1.00
H358   H     0.89344   0.14489   0.12571   0.00000  Uiso   1.00
H359   H     0.88467   0.32583   0.13866   0.00000  Uiso   1.00
H360   H     0.95045   0.38610   0.19448   0.00000  Uiso   1.00
H361   H     0.82627   0.33363   0.21452   0.00000  Uiso   1.00
H362   H     0.64397   0.27194   0.32959   0.00000  Uiso   1.00
H363   H     0.61806   0.28760   0.25193   0.00000  Uiso   1.00
H364   H     0.58842   0.17651   0.28411   0.00000  Uiso   1.00
H365   H     0.90247  -0.03582   0.89769   0.00000  Uiso   1.00
H366   H     0.86103  -0.13741   0.95463   0.00000  Uiso   1.00
H367   H     0.97919  -0.04967   0.92611   0.00000  Uiso   1.00
H368   H     1.05812   0.16196   0.00545   0.00000  Uiso   1.00
H369   H     0.98213   0.19492   0.02385   0.00000  Uiso   1.00
H370   H     0.99662   0.16081  -0.05841   0.00000  Uiso   1.00
H371   H     0.57400   0.05896   0.44020   0.00000  Uiso   1.00
H372   H     0.69713   0.14767   0.43055   0.00000  Uiso   1.00
H373   H     0.61224   0.16621   0.39932   0.00000  Uiso   1.00
H374   H     0.63719   0.14718   0.62863   0.00000  Uiso   1.00
H375   H     0.72206   0.15334   0.57147   0.00000  Uiso   1.00
H376   H     0.61377   0.05203   0.57338   0.00000  Uiso   1.00
H377   H     0.75236   0.32826   0.51340   0.00000  Uiso   1.00
H378   H     0.66697   0.32644   0.57252   0.00000  Uiso   1.00
H379   H     0.67903   0.35380   0.47928   0.00000  Uiso   1.00
H380   H     1.13072   0.19220   0.12070   0.00000  Uiso   1.00
H381   H     1.20122   0.21302   0.18001   0.00000  Uiso   1.00
H382   H     1.09917   0.20332   0.20745   0.00000  Uiso   1.00
H383   H     1.03791   0.41189   0.39824   0.00000  Uiso   1.00
H384   H     1.05930   0.39831   0.31456   0.00000  Uiso   1.00
H385   H     1.06555   0.32460   0.37267   0.00000  Uiso   1.00
H386   H     0.81640   0.11785   0.41444   0.00000  Uiso   1.00
H387   H     0.85658   0.20427   0.47474   0.00000  Uiso   1.00
H388   H     0.92573   0.16970   0.44349   0.00000  Uiso   1.00
H389   H     0.78779   0.30414   0.35411   0.00000  Uiso   1.00
H390   H     0.89662   0.40803   0.33829   0.00000  Uiso   1.00
H391   H     0.83779   0.33919   0.42105   0.00000  Uiso   1.00
H392   H     0.71273   0.12650   0.80938   0.00000  Uiso   1.00
H393   H     0.71347   0.12225   0.72508   0.00000  Uiso   1.00
H394   H     0.62420   0.01468   0.77645   0.00000  Uiso   1.00
H395   H     0.79418   0.04655   1.06347   0.00000  Uiso   1.00
H396   H     0.74666  -0.06969   1.03722   0.00000  Uiso   1.00
H397   H     0.78887   0.03003   0.98012   0.00000  Uiso   1.00
H398   H     0.75062   0.31048   0.76432   0.00000  Uiso   1.00
H399   H     0.64706   0.30411   0.74024   0.00000  Uiso   1.00
H400   H     0.71517   0.27268   0.68424   0.00000  Uiso   1.00
H401   H     0.58798   0.12987   0.89425   0.00000  Uiso   1.00
H402   H     0.49178   0.14206   0.86794   0.00000  Uiso   1.00
H403   H     0.60659   0.24328   0.87512   0.00000  Uiso   1.00
H404   H     0.50138   0.29310   0.03617   0.00000  Uiso   1.00
H405   H     0.48911   0.22927   0.10962   0.00000  Uiso   1.00
H406   H     0.55662   0.34793   0.10740   0.00000  Uiso   1.00
H407   H     0.56590   0.49344   0.21952   0.00000  Uiso   1.00
H408   H     0.51722   0.40074   0.28578   0.00000  Uiso   1.00
H409   H     0.59511   0.40551   0.22291   0.00000  Uiso   1.00
H410   H     0.75767   0.55667   0.37074   0.00000  Uiso   1.00
H411   H     0.73291   0.45390   0.32850   0.00000  Uiso   1.00
H412   H     0.65488   0.44193   0.40047   0.00000  Uiso   1.00
H413   H     0.71819   0.65282   0.20703   0.00000  Uiso   1.00
H414   H     0.78047   0.59680   0.21774   0.00000  Uiso   1.00
H415   H     0.79880   0.67904   0.26532   0.00000  Uiso   1.00
H416   H     0.68778   0.43346   0.11871   0.00000  Uiso   1.00
H417   H     0.70456   0.47330   0.03387   0.00000  Uiso   1.00
H418   H     0.74916   0.56012   0.09482   0.00000  Uiso   1.00
H419   H     0.91341   0.59993   0.16926   0.00000  Uiso   1.00
H420   H     0.94741   0.52434   0.15645   0.00000  Uiso   1.00
H421   H     0.83590   0.47437   0.19366   0.00000  Uiso   1.00
H422   H     0.65507   0.43352   0.62464   0.00000  Uiso   1.00
H423   H     0.56051   0.40647   0.67293   0.00000  Uiso   1.00
H424   H     0.64379   0.52734   0.65404   0.00000  Uiso   1.00
H425   H     0.72181   0.56602   0.50866   0.00000  Uiso   1.00
H426   H     0.67827   0.63005   0.54008   0.00000  Uiso   1.00
H427   H     0.64181   0.57931   0.46765   0.00000  Uiso   1.00
H428   H     0.50858   0.56995   0.57468   0.00000  Uiso   1.00
H429   H     0.43863   0.45795   0.62776   0.00000  Uiso   1.00
H430   H     0.42536   0.46276   0.54332   0.00000  Uiso   1.00
H431   H     0.74858   0.49267   0.78850   0.00000  Uiso   1.00
H432   H     0.66413   0.44590   0.73775   0.00000  Uiso   1.00
H433   H     0.64077   0.40229   0.82264   0.00000  Uiso   1.00
H434   H     0.97749   0.61809   0.99699   0.00000  Uiso   1.00
H435   H     0.92834   0.67150   1.04773   0.00000  Uiso   1.00
H436   H     0.88027   0.61001   0.96925   0.00000  Uiso   1.00
H437   H     0.69602   0.55055   0.93389   0.00000  Uiso   1.00
H438   H     0.70143   0.65716   0.91309   0.00000  Uiso   1.00
H439   H     0.79245   0.64139   0.87716   0.00000  Uiso   1.00
H440   H     0.50860   0.44027   0.98992   0.00000  Uiso   1.00
H441   H     0.59412   0.50880   1.03772   0.00000  Uiso   1.00
H442   H     0.55749   0.56661   0.98507   0.00000  Uiso   1.00
H443   H     0.69607   0.93083   0.44459   0.00000  Uiso   1.00
H444   H     0.75305   1.00199   0.50869   0.00000  Uiso   1.00
H445   H     0.64859   0.98391   0.48921   0.00000  Uiso   1.00
H446   H     1.01974   0.76159   0.22514   0.00000  Uiso   1.00
H447   H     1.14319   0.81124   0.22274   0.00000  Uiso   1.00
H448   H     1.08619   0.85917   0.27397   0.00000  Uiso   1.00
H449   H     0.91131   0.76999   0.34120   0.00000  Uiso   1.00
H450   H     0.97983   0.88977   0.35112   0.00000  Uiso   1.00
H451   H     0.95367   0.84550   0.27162   0.00000  Uiso   1.00
H452   H     0.81582   0.81287   0.45529   0.00000  Uiso   1.00
H453   H     0.72373   0.71629   0.41730   0.00000  Uiso   1.00
H454   H     0.72508   0.81632   0.43438   0.00000  Uiso   1.00
H455   H     0.87320   0.99488   0.38566   0.00000  Uiso   1.00
H456   H     0.83294   0.99751   0.31546   0.00000  Uiso   1.00
H457   H     0.94369   1.03012   0.30618   0.00000  Uiso   1.00
H458   H     0.80967   0.59104   0.67106   0.00000  Uiso   1.00
H459   H     0.85833   0.63387   0.73974   0.00000  Uiso   1.00
H460   H     0.91014   0.70387   0.66737   0.00000  Uiso   1.00
H461   H     0.80398   0.84102   0.79220   0.00000  Uiso   1.00
H462   H     0.90710   0.88062   0.74613   0.00000  Uiso   1.00
H463   H     0.86263   0.79341   0.81385   0.00000  Uiso   1.00
H464   H     0.71089   0.81496   0.92585   0.00000  Uiso   1.00
H465   H     0.65351   0.74425   0.86662   0.00000  Uiso   1.00
H466   H     0.59167   0.75709   0.93346   0.00000  Uiso   1.00
H467   H     0.82209   0.96840   0.82840   0.00000  Uiso   1.00
H468   H     0.78685   1.04636   0.86301   0.00000  Uiso   1.00
H469   H     0.78152   1.02393   0.78373   0.00000  Uiso   1.00
H470   H     0.61492   0.99809   0.90809   0.00000  Uiso   1.00
H471   H     0.62374   0.92923   0.97298   0.00000  Uiso   1.00
H472   H     0.53388   0.88329   0.93359   0.00000  Uiso   1.00
H473   H     0.82429   1.01128   0.62066   0.00000  Uiso   1.00
H474   H     0.86768   0.97965   0.68110   0.00000  Uiso   1.00
H475   H     0.74943   0.93609   0.69139   0.00000  Uiso   1.00
loop_
_geom_bond_atom_site_label_1
_geom_bond_atom_site_label_2
_geom_bond_distance
_geom_bond_site_symmetry_2
_ccdc_geom_bond_type
Si1    C52     1.921   .     S
Si1    O53     1.649   .     S
Si1    O138    1.606   1_455 S
Si1    C151    1.876   1_455 S
Si2    O54     1.610   .     S
Si2    O93     1.652   .     S
Si2    O81     1.620   1_545 S
Si2    O85     1.597   1_545 S
Si3    O53     1.612   .     S
Si3    O54     1.595   .     S
Si3    C55     1.865   .     S
Si3    O92     1.604   .     S
Si4    C56     1.874   .     S
Si4    O59     1.607   .     S
Si4    C57     1.865   1_545 S
Si4    O90     1.592   1_545 S
Si5    C58     1.817   .     S
Si5    O59     1.654   .     S
Si5    O65     1.630   .     S
Si5    O94     1.605   .     S
Si6    C60     1.887   .     S
Si6    O72     1.617   .     S
Si6    C68     1.832   1_554 S
Si6    O115    1.586   1_554 S
Si7    C61     1.858   .     S
Si7    O79     1.610   .     S
Si7    C62     1.883   1_455 S
Si7    C63     1.865   1_455 S
Si8    C64     1.894   .     S
Si8    O65     1.572   .     S
Si8    C66     1.869   .     S
Si8    O112    1.587   .     S
Si9    C67     1.910   .     S
Si9    C69     1.877   .     S
Si9    C70     1.942   1_455 S
Si9    O166    1.585   1_455 S
Si10   C71     1.853   .     S
Si10   O72     1.593   .     S
Si10   C73     1.879   .     S
Si10   O76     1.647   .     S
Si11   C74     1.925   .     S
Si11   O83     1.596   .     S
Si11   C75     1.851   1_455 S
Si11   C184    1.928   1_455 S
Si12   O76     1.630   .     S
Si12   C77     1.859   .     S
Si12   C78     1.921   1_554 S
Si12   O134    1.577   1_554 S
Si13   O79     1.568   .     S
Si13   C80     1.857   .     S
Si13   O84     1.586   .     S
Si13   O122    1.593   .     S
Si14   O81     1.541   .     S
Si14   C87     1.827   .     S
Si14   C82     1.808   1_455 S
Si14   O196    1.640   1_455 S
Si15   O83     1.609   .     S
Si15   O84     1.586   .     S
Si15   O85     1.623   .     S
Si15   C86     1.823   .     S
Si16   C88     1.790   .     S
Si16   C89     1.823   .     S
Si16   O90     1.630   .     S
Si16   O124    1.570   .     S
Si17   C91     1.893   .     S
Si17   O92     1.592   .     S
Si17   O95     1.632   .     S
Si17   O99     1.622   .     S
Si18   O93     1.606   .     S
Si18   O94     1.617   .     S
Si18   O97     1.618   .     S
Si18   O104    1.645   .     S
Si19   O95     1.578   .     S
Si19   C96     1.856   .     S
Si19   O105    1.647   .     S
Si19   C143    1.891   .     S
Si20   O98     1.598   .     S
Si20   O156    1.611   .     S
Si20   O133    1.598   1_545 S
Si20   O137    1.582   1_545 S
Si21   O97     1.623   .     S
Si21   O98     1.576   .     S
Si21   C109    1.844   .     S
Si21   O150    1.576   .     S
Si22   O99     1.590   .     S
Si22   C100    1.867   .     S
Si22   O103    1.568   .     S
Si22   C161    1.841   .     S
Si23   C101    1.882   .     S
Si23   C102    1.910   .     S
Si23   O106    1.612   .     S
Si23   C116    1.873   .     S
Si24   O103    1.575   .     S
Si24   O118    1.598   .     S
Si24   C114    1.847   1_554 S
Si24   C177    1.768   1_554 S
Si25   O104    1.658   .     S
Si25   O105    1.614   .     S
Si25   O107    1.639   .     S
Si25   O169    1.597   .     S
Si26   O106    1.570   .     S
Si26   O107    1.626   .     S
Si26   O121    1.613   .     S
Si26   O165    1.569   .     S
Si27   C108    1.819   .     S
Si27   C110    1.868   .     S
Si27   C111    1.813   .     S
Si27   O173    1.581   .     S
Si28   O112    1.605   .     S
Si28   C113    1.883   .     S
Si28   O115    1.592   .     S
Si28   C128    1.880   .     S
Si29   C117    1.894   .     S
Si29   O118    1.616   .     S
Si29   C119    1.863   .     S
Si29   O178    1.612   .     S
Si30   C120    1.883   .     S
Si30   O121    1.652   .     S
Si30   O126    1.585   .     S
Si30   O181    1.579   .     S
Si31   O122    1.562   .     S
Si31   C123    1.841   .     S
Si31   O124    1.593   .     S
Si31   O135    1.606   .     S
Si32   C125    1.808   .     S
Si32   O126    1.655   .     S
Si32   C127    1.883   .     S
Si32   O180    1.617   .     S
Si33   C129    1.757   .     S
Si33   C130    1.803   .     S
Si33   O136    1.629   .     S
Si33   O192    1.624   .     S
Si34   C131    1.872   .     S
Si34   C132    1.907   .     S
Si34   O133    1.587   .     S
Si34   O134    1.613   .     S
Si35   O135    1.633   .     S
Si35   O136    1.574   .     S
Si35   O137    1.616   .     S
Si35   O183    1.637   .     S
Si36   O138    1.596   .     S
Si36   O145    1.517   .     S
Si36   C139    1.842   1_545 S
Si36   O179    1.611   1_545 S
Si37   C140    1.838   .     S
Si37   C141    1.871   .     S
Si37   C142    1.911   .     S
Si37   O153    1.565   .     S
Si38   O145    1.565   .     S
Si38   C146    1.859   .     S
Si38   C144    1.904   1_554 S
Si38   C158    1.862   1_554 S
Si39   C147    1.869   .     S
Si39   C148    1.863   .     S
Si39   C149    1.814   .     S
Si39   O150    1.596   .     S
Si40   C152    1.823   .     S
Si40   O153    1.632   .     S
Si40   C154    1.875   .     S
Si40   C155    1.877   .     S
Si41   O156    1.573   .     S
Si41   C157    1.806   .     S
Si41   C159    1.859   .     S
Si41   C160    1.930   .     S
Si42   C162    1.827   .     S
Si42   C163    1.853   .     S
Si42   C164    1.932   .     S
Si42   O165    1.579   .     S
Si43   C167    1.893   .     S
Si43   C168    1.912   .     S
Si43   O166    1.657   1_554 S
Si43   C175    1.816   1_554 S
Si44   O169    1.613   .     S
Si44   C170    1.812   .     S
Si44   C171    1.851   .     S
Si44   C172    1.873   .     S
Si45   O173    1.541   .     S
Si45   C174    1.877   .     S
Si45   C176    1.876   .     S
Si45   O189    1.602   .     S
Si46   O178    1.615   .     S
Si46   O179    1.615   .     S
Si46   O180    1.615   .     S
Si46   O186    1.603   .     S
Si47   O181    1.603   .     S
Si47   C182    1.869   .     S
Si47   O183    1.628   .     S
Si47   O197    1.606   .     S
Si48   C185    1.860   .     S
Si48   O186    1.609   .     S
Si48   C187    1.878   .     S
Si48   C188    1.847   .     S
Si49   O189    1.638   .     S
Si49   C190    1.928   .     S
Si49   C191    1.873   .     S
Si49   O198    1.600   .     S
Si50   O192    1.612   .     S
Si50   C193    1.814   .     S
Si50   C194    1.854   .     S
Si50   C195    1.863   .     S
Si51   O196    1.594   .     S
Si51   O197    1.533   .     S
Si51   O198    1.631   .     S
Si51   C199    1.819   .     S
C52    H200    1.139   .     S
C52    H201    1.100   .     S
C52    H202    1.091   .     S
C55    H203    1.101   .     S
C55    H204    1.102   .     S
C55    H205    1.140   .     S
C56    H206    1.136   .     S
C56    H207    1.134   .     S
C56    H208    1.135   .     S
C57    H209    1.099   .     S
C57    H210    1.111   .     S
C57    H211    1.117   .     S
C57    Si4     1.865   1_565 S
C58    H212    1.100   .     S
C58    H213    1.126   .     S
C58    H214    1.071   .     S
C60    H215    1.081   .     S
C60    H216    1.092   .     S
C60    H217    1.118   .     S
C61    H218    1.129   .     S
C61    H219    1.147   .     S
C61    H220    1.106   .     S
C62    H221    1.078   .     S
C62    H222    1.121   .     S
C62    H223    1.073   .     S
C62    Si7     1.883   1_655 S
C63    H224    1.137   .     S
C63    H225    1.128   .     S
C63    H226    1.128   .     S
C63    Si7     1.865   1_655 S
C64    H227    1.138   .     S
C64    H228    1.060   .     S
C64    H229    1.127   .     S
C66    H230    1.099   .     S
C66    H231    1.076   .     S
C66    H232    1.179   .     S
C67    H233    1.074   .     S
C67    H234    1.130   .     S
C67    H235    1.110   .     S
C68    H236    1.057   .     S
C68    H237    1.106   .     S
C68    H238    1.111   .     S
C68    Si6     1.832   1_556 S
C69    H239    1.085   .     S
C69    H240    1.144   .     S
C69    H241    1.044   .     S
C70    H242    1.132   .     S
C70    H243    1.103   .     S
C70    H244    1.110   .     S
C70    Si9     1.942   1_655 S
C71    H245    1.114   .     S
C71    H246    1.170   .     S
C71    H247    1.088   .     S
C73    H248    1.146   .     S
C73    H249    1.117   .     S
C73    H250    1.071   .     S
C74    H251    1.116   .     S
C74    H252    1.113   .     S
C74    H253    1.092   .     S
C75    H254    1.120   .     S
C75    H255    1.099   .     S
C75    H256    1.098   .     S
C75    Si11    1.851   1_655 S
C77    H257    1.107   .     S
C77    H258    1.114   .     S
C77    H259    1.127   .     S
C78    H260    1.078   .     S
C78    H261    1.108   .     S
C78    H262    1.095   .     S
C78    Si12    1.921   1_556 S
C80    H263    1.072   .     S
C80    H264    1.164   .     S
C80    H265    1.115   .     S
O81    Si2     1.620   1_565 S
C82    H266    1.105   .     S
C82    H267    1.112   .     S
C82    H268    1.124   .     S
C82    Si14    1.808   1_655 S
O85    Si2     1.597   1_565 S
C86    H269    1.090   .     S
C86    H270    1.134   .     S
C86    H271    1.111   .     S
C87    H272    1.120   .     S
C87    H273    1.070   .     S
C87    H274    1.093   .     S
C88    H275    1.053   .     S
C88    H276    1.123   .     S
C88    H277    1.016   .     S
C89    H278    1.100   .     S
C89    H279    1.135   .     S
C89    H280    1.088   .     S
O90    Si4     1.592   1_565 S
C91    H281    1.092   .     S
C91    H282    1.101   .     S
C91    H283    1.113   .     S
C96    H284    1.120   .     S
C96    H285    1.106   .     S
C96    H286    1.088   .     S
C100   H287    1.103   .     S
C100   H288    1.169   .     S
C100   H289    1.087   .     S
C101   H290    1.109   .     S
C101   H291    1.084   .     S
C101   H292    1.142   .     S
C102   H293    1.071   .     S
C102   H294    1.082   .     S
C102   H295    1.113   .     S
C108   H296    1.127   .     S
C108   H297    1.090   .     S
C108   H298    1.122   .     S
C109   H299    1.052   .     S
C109   H300    1.110   .     S
C109   H301    1.103   .     S
C110   H302    1.051   .     S
C110   H303    1.154   .     S
C110   H304    1.080   .     S
C111   H305    1.065   .     S
C111   H306    1.163   .     S
C111   H307    1.135   .     S
C113   H308    1.100   .     S
C113   H309    1.117   .     S
C113   H310    1.120   .     S
C114   H311    1.066   .     S
C114   H312    1.093   .     S
C114   H313    1.190   .     S
C114   Si24    1.847   1_556 S
O115   Si6     1.586   1_556 S
C116   H314    1.111   .     S
C116   H315    1.165   .     S
C116   H316    1.112   .     S
C117   H317    1.122   .     S
C117   H318    1.128   .     S
C117   H319    1.085   .     S
C119   H320    1.128   .     S
C119   H321    1.121   .     S
C119   H322    1.061   .     S
C120   H323    1.091   .     S
C120   H324    1.095   .     S
C120   H325    1.083   .     S
C123   H326    1.110   .     S
C123   H327    1.106   .     S
C123   H328    1.123   .     S
C125   H329    1.094   .     S
C125   H330    1.118   .     S
C125   H331    1.057   .     S
C127   H332    1.137   .     S
C127   H333    1.085   .     S
C127   H334    1.099   .     S
C128   H335    1.027   .     S
C128   H336    1.125   .     S
C128   H337    1.113   .     S
C129   H338    1.084   .     S
C129   H339    1.133   .     S
C129   H340    1.101   .     S
C130   H341    1.086   .     S
C130   H342    1.121   .     S
C130   H343    1.138   .     S
C131   H344    1.095   .     S
C131   H345    1.111   .     S
C131   H346    1.064   .     S
C132   H347    1.148   .     S
C132   H348    1.150   .     S
C132   H349    1.083   .     S
O133   Si20    1.598   1_565 S
O134   Si12    1.577   1_556 S
O137   Si20    1.582   1_565 S
O138   Si1     1.606   1_655 S
C139   H350    1.109   .     S
C139   H351    1.176   .     S
C139   H352    1.079   .     S
C139   Si36    1.842   1_565 S
C140   H353    1.082   .     S
C140   H354    1.152   .     S
C140   H355    1.121   .     S
C141   H356    1.114   .     S
C141   H357    1.101   .     S
C141   H358    1.112   .     S
C142   H359    1.050   .     S
C142   H360    1.121   .     S
C142   H361    1.121   .     S
C143   H362    1.071   .     S
C143   H363    1.077   .     S
C143   H364    1.090   .     S
C144   H365    1.098   .     S
C144   H366    1.215   .     S
C144   H367    1.088   .     S
C144   Si38    1.904   1_556 S
C146   H368    1.083   .     S
C146   H369    1.120   .     S
C146   H370    1.101   .     S
C147   H371    1.117   .     S
C147   H372    1.145   .     S
C147   H373    1.085   .     S
C148   H374    1.112   .     S
C148   H375    1.117   .     S
C148   H376    1.129   .     S
C149   H377    1.082   .     S
C149   H378    1.128   .     S
C149   H379    1.147   .     S
C151   H380    1.145   .     S
C151   H381    1.091   .     S
C151   H382    1.091   .     S
C151   Si1     1.876   1_655 S
C152   H383    1.107   .     S
C152   H384    1.095   .     S
C152   H385    1.094   .     S
C154   H386    1.124   .     S
C154   H387    1.078   .     S
C154   H388    1.093   .     S
C155   H389    1.053   .     S
C155   H390    1.104   .     S
C155   H391    1.102   .     S
C157   H392    1.084   .     S
C157   H393    1.114   .     S
C157   H394    1.163   .     S
C158   H395    1.081   .     S
C158   H396    1.125   .     S
C158   H397    1.080   .     S
C158   Si38    1.862   1_556 S
C159   H398    1.171   .     S
C159   H399    1.088   .     S
C159   H400    1.137   .     S
C160   H401    1.106   .     S
C160   H402    1.158   .     S
C160   H403    1.155   .     S
C161   H404    1.080   .     S
C161   H405    1.090   .     S
C161   H406    1.113   .     S
C162   H407    1.089   .     S
C162   H408    1.070   .     S
C162   H409    1.097   .     S
C163   H410    1.103   .     S
C163   H411    1.106   .     S
C163   H412    1.145   .     S
C164   H413    1.093   .     S
C164   H414    1.058   .     S
C164   H415    1.077   .     S
O166   Si9     1.585   1_655 S
O166   Si43    1.657   1_556 S
C167   H416    1.091   .     S
C167   H417    1.089   .     S
C167   H418    1.089   .     S
C168   H419    1.105   .     S
C168   H420    1.083   .     S
C168   H421    1.105   .     S
C170   H422    1.089   .     S
C170   H423    1.083   .     S
C170   H424    1.135   .     S
C171   H425    1.120   .     S
C171   H426    1.050   .     S
C171   H427    1.081   .     S
C172   H428    1.121   .     S
C172   H429    1.130   .     S
C172   H430    1.067   .     S
C174   H431    1.086   .     S
C174   H432    1.134   .     S
C174   H433    1.074   .     S
C175   H434    1.170   .     S
C175   H435    1.155   .     S
C175   H436    1.135   .     S
C175   Si43    1.816   1_556 S
C176   H437    1.128   .     S
C176   H438    1.136   .     S
C176   H439    1.129   .     S
C177   H440    1.108   .     S
C177   H441    1.131   .     S
C177   H442    1.121   .     S
C177   Si24    1.768   1_556 S
O179   Si36    1.611   1_565 S
C182   H443    1.089   .     S
C182   H444    1.099   .     S
C182   H445    1.138   .     S
C184   H446    1.127   .     S
C184   H447    1.112   .     S
C184   H448    1.128   .     S
C184   Si11    1.928   1_655 S
C185   H449    1.027   .     S
C185   H450    1.078   .     S
C185   H451    1.109   .     S
C187   H452    1.093   .     S
C187   H453    1.120   .     S
C187   H454    1.077   .     S
C188   H455    1.063   .     S
C188   H456    1.109   .     S
C188   H457    1.144   .     S
C190   H458    1.118   .     S
C190   H459    1.113   .     S
C190   H460    1.030   .     S
C191   H461    1.086   .     S
C191   H462    1.114   .     S
C191   H463    1.086   .     S
C193   H464    1.082   .     S
C193   H465    1.020   .     S
C193   H466    1.103   .     S
C194   H467    1.157   .     S
C194   H468    1.044   .     S
C194   H469    1.134   .     S
C195   H470    1.092   .     S
C195   H471    1.102   .     S
C195   H472    1.073   .     S
O196   Si14    1.640   1_655 S
C199   H473    1.075   .     S
C199   H474    1.128   .     S
C199   H475    1.115   .     S
