data_333-7-11-18-15-30-1
_audit_creation_date              2025-03-07
_audit_creation_method            'Materials Studio'
_symmetry_space_group_name_H-M    'P1'
_symmetry_Int_Tables_number       1
_symmetry_cell_setting            triclinic
loop_
_symmetry_equiv_pos_as_xyz
  x,y,z
_cell_length_a                    17.6181
_cell_length_b                    16.0235
_cell_length_c                    21.6012
_cell_angle_alpha                 91.0868
_cell_angle_beta                  89.1293
_cell_angle_gamma                 122.5606
loop_
_atom_site_label
_atom_site_type_symbol
_atom_site_fract_x
_atom_site_fract_y
_atom_site_fract_z
_atom_site_U_iso_or_equiv
_atom_site_adp_type
_atom_site_occupancy
Si1    Si    0.24380   0.09660   0.13701   0.00000  Uiso   1.00
Si2    Si   -0.01926   0.17606   0.30081   0.00000  Uiso   1.00
Si3    Si    0.10479  -0.07661   0.05462   0.00000  Uiso   1.00
Si4    Si    0.17767   0.01208   0.40408   0.00000  Uiso   1.00
Si5    Si   -0.00491   0.13962   0.55299   0.00000  Uiso   1.00
Si6    Si    0.12802   0.16030   0.36177   0.00000  Uiso   1.00
Si7    Si    0.42002   0.12133   0.71540   0.00000  Uiso   1.00
Si8    Si    0.04881  -0.05904   0.92090   0.00000  Uiso   1.00
Si9    Si    0.33320   0.11029   0.59180   0.00000  Uiso   1.00
Si10   Si    0.31807   0.81191  -0.10404   0.00000  Uiso   1.00
Si11   Si    0.15505   0.31112   0.47111   0.00000  Uiso   1.00
Si12   Si   -0.10753   0.44738   0.50873   0.00000  Uiso   1.00
Si13   Si   -0.00107   0.46388   0.62156   0.00000  Uiso   1.00
Si14   Si    0.36023   1.02876   0.19333   0.00000  Uiso   1.00
Si15   Si    0.32203   1.22458   0.02268   0.00000  Uiso   1.00
Si16   Si    0.09641   0.83686   0.48216   0.00000  Uiso   1.00
Si17   Si    0.23226   0.90952   0.29867   0.00000  Uiso   1.00
Si18   Si   -0.05745   0.54363   0.72781   0.00000  Uiso   1.00
Si19   Si    0.26293   0.21818   0.25264   0.00000  Uiso   1.00
Si20   Si    0.71190   0.30141  -0.08375   0.00000  Uiso   1.00
Si21   Si    0.59063   0.07308   0.55339   0.00000  Uiso   1.00
Si22   Si    0.37156   0.12374   0.45554   0.00000  Uiso   1.00
Si23   Si    0.08447   0.46804   0.02883   0.00000  Uiso   1.00
Si24   Si    0.33374   0.48919   0.53283   0.00000  Uiso   1.00
Si25   Si    0.56730   0.55039   0.40174   0.00000  Uiso   1.00
Si26   Si    0.29797   0.33404   0.75413   0.00000  Uiso   1.00
Si27   Si    0.30768   0.64611   0.81410   0.00000  Uiso   1.00
Si28   Si    0.41561   0.47367   0.65244   0.00000  Uiso   1.00
Si29   Si    0.26222   0.53439   0.08399   0.00000  Uiso   1.00
Si30   Si    0.26041   0.74251   0.32747   0.00000  Uiso   1.00
Si31   Si    0.50319   0.67359   0.45982   0.00000  Uiso   1.00
Si32   Si    0.43846   0.87526   0.59813   0.00000  Uiso   1.00
Si33   Si    0.38490   0.67821   0.35776   0.00000  Uiso   1.00
Si34   Si    0.45828   0.64980   0.73639   0.00000  Uiso   1.00
Si35   Si    0.56888   0.83713   0.65975   0.00000  Uiso   1.00
Si36   Si    0.95084   0.04162   0.18765   0.00000  Uiso   1.00
Si37   Si    0.65993   0.04142   0.26971   0.00000  Uiso   1.00
Si38   Si    0.81612   0.02571   0.47165   0.00000  Uiso   1.00
Si39   Si    0.80589   0.13967   0.36493   0.00000  Uiso   1.00
Si40   Si    0.76587   0.15235   0.88885   0.00000  Uiso   1.00
Si41   Si    0.92823   0.09285   0.68401   0.00000  Uiso   1.00
Si42   Si    0.74360   0.18404   0.16458   0.00000  Uiso   1.00
Si43   Si    0.68265   0.52571   0.30308   0.00000  Uiso   1.00
Si44   Si    0.79329   0.32837   0.39545   0.00000  Uiso   1.00
Si45   Si    0.60098   0.50504   0.66913   0.00000  Uiso   1.00
Si46   Si    0.85111   0.51769   0.32447   0.00000  Uiso   1.00
Si47   Si    0.86692   0.20715   0.76466   0.00000  Uiso   1.00
Si48   Si    0.67888   0.60968   0.17809   0.00000  Uiso   1.00
Si49   Si    0.94224   0.70855   0.39228   0.00000  Uiso   1.00
Si50   Si    0.66176   0.83823   0.53607   0.00000  Uiso   1.00
Si51   Si    0.56523   0.69280   0.85304   0.00000  Uiso   1.00
C52    C     0.05436   0.30626   0.27253   0.00000  Uiso   1.00
O53    O     0.15132   0.01514   0.10364   0.00000  Uiso   1.00
C54    C     0.16793  -0.14139   0.04234   0.00000  Uiso   1.00
C55    C    -0.00728  -0.17615   1.08700   0.00000  Uiso   1.00
O56    O     0.03121   0.13657   0.34179   0.00000  Uiso   1.00
O57    O     0.12464   0.06106   0.37730   0.00000  Uiso   1.00
C58    C     0.45368   0.23490   0.75224   0.00000  Uiso   1.00
C59    C     0.32279   1.02511   0.76143   0.00000  Uiso   1.00
C60    C     0.51903   1.10505   0.72439   0.00000  Uiso   1.00
O61    O     0.09306  -0.03884   0.98808   0.00000  Uiso   1.00
C62    C     0.13158   0.00361   0.86118   0.00000  Uiso   1.00
C63    C     0.97391  -0.00646   0.92393   0.00000  Uiso   1.00
C64    C     0.98669  -0.19409   0.90146   0.00000  Uiso   1.00
C65    C     0.01948   0.04131   0.54529   0.00000  Uiso   1.00
C66    C     0.21797   0.01164   0.61037   0.00000  Uiso   1.00
O67    O     0.40239   0.12171   0.64451   0.00000  Uiso   1.00
C68    C     0.33683   0.22949   0.59009   0.00000  Uiso   1.00
C69    C     0.21908   0.81568  -0.12940   0.00000  Uiso   1.00
C70    C     0.29384   0.75944  -0.02601   0.00000  Uiso   1.00
C71    C     0.42257   0.94031   0.89951   0.00000  Uiso   1.00
O72    O     0.08474   0.24343   0.52742   0.00000  Uiso   1.00
O73    O     0.16715   0.23772   0.42071   0.00000  Uiso   1.00
C74    C     0.08878   0.36286   0.43614   0.00000  Uiso   1.00
C75    C    -0.00621   0.54044   0.46820   0.00000  Uiso   1.00
C76    C     0.81519   0.48636   0.54178   0.00000  Uiso   1.00
O77    O    -0.07654   0.41877   0.56992   0.00000  Uiso   1.00
C78    C     0.03816   0.38162   0.63437   0.00000  Uiso   1.00
O79    O     0.30118   1.04849   0.14793   0.00000  Uiso   1.00
C80    C     1.37774   0.93436   0.15770   0.00000  Uiso   1.00
C81    C     0.22431   1.22800  -0.00620   0.00000  Uiso   1.00
O82    O     0.30128   1.18866   0.09232   0.00000  Uiso   1.00
C83    C     0.43188   1.34439   1.02560   0.00000  Uiso   1.00
C84    C     0.33837   1.14846   0.96492   0.00000  Uiso   1.00
C85    C     0.19790   0.83231   0.49101   0.00000  Uiso   1.00
O86    O     0.12136   0.93729   0.45886   0.00000  Uiso   1.00
C87    C     1.02842   0.80017   0.55547   0.00000  Uiso   1.00
O88    O     0.31164   0.99862   0.25952   0.00000  Uiso   1.00
C89    C     0.13821   0.83670   0.24476   0.00000  Uiso   1.00
O90    O     0.19728   0.95097   0.35285   0.00000  Uiso   1.00
C91    C    -0.06346   0.51112   0.81122   0.00000  Uiso   1.00
O92    O    -0.04575   0.47059   0.68474   0.00000  Uiso   1.00
C93    C    -0.17061   0.51072   0.71090   0.00000  Uiso   1.00
C94    C     0.01951   0.67713   0.71270   0.00000  Uiso   1.00
O95    O     0.22244   0.12922   0.20240   0.00000  Uiso   1.00
C96    C     0.34069   0.21160   0.29747   0.00000  Uiso   1.00
C97    C     0.32210   0.33940   0.20971   0.00000  Uiso   1.00
O98    O     0.18523   0.20982   0.29701   0.00000  Uiso   1.00
C99    C     0.61088   0.23521  -0.02899   0.00000  Uiso   1.00
C100   C     0.81605   0.39133  -0.03747   0.00000  Uiso   1.00
C101   C     0.69172   0.37184   0.86006   0.00000  Uiso   1.00
C102   C     0.58319   0.01828   0.47344   0.00000  Uiso   1.00
C103   C     0.58695   0.18975   0.55641   0.00000  Uiso   1.00
O104   O     0.27178   0.09006   0.42957   0.00000  Uiso   1.00
C105   C     0.41960   0.06175   0.41203   0.00000  Uiso   1.00
C106   C     0.44897   0.26155   0.44573   0.00000  Uiso   1.00
O107   O     0.36503   0.09779   0.52478   0.00000  Uiso   1.00
C108   C     0.01793   0.48884   0.08763   0.00000  Uiso   1.00
C109   C     0.04541   0.33406   1.02713   0.00000  Uiso   1.00
O110   O     0.25493   0.39631   0.49286   0.00000  Uiso   1.00
C111   C     0.28106   0.54993   0.57326   0.00000  Uiso   1.00
C112   C     0.10025   0.58354   0.60143   0.00000  Uiso   1.00
C113   C     0.45680   0.45491   0.37104   0.00000  Uiso   1.00
C114   C     0.59841   0.50956   0.47498   0.00000  Uiso   1.00
C115   C     0.21957   0.37891   0.74734   0.00000  Uiso   1.00
C116   C     0.23927   0.20230   0.75818   0.00000  Uiso   1.00
C117   C     0.36678   0.38300   0.82858   0.00000  Uiso   1.00
C118   C     0.19399   0.59679   0.77526   0.00000  Uiso   1.00
C119   C     0.29044   0.55905   0.87127   0.00000  Uiso   1.00
C120   C     0.07026   0.50687   0.95070   0.00000  Uiso   1.00
O121   O     0.33245   0.74586   0.84577   0.00000  Uiso   1.00
O122   O     0.36045   0.44556   0.58904   0.00000  Uiso   1.00
O123   O     0.36709   0.37880   0.69610   0.00000  Uiso   1.00
C124   C     0.34874   0.66867   0.10086   0.00000  Uiso   1.00
O125   O     0.18489   0.53048   0.04427   0.00000  Uiso   1.00
C126   C     0.31906   0.48258   0.04054   0.00000  Uiso   1.00
C127   C     0.20734   0.46553   0.15948   0.00000  Uiso   1.00
C128   C     0.16087   0.65452   0.37680   0.00000  Uiso   1.00
C129   C     0.24832   0.69502   0.24372   0.00000  Uiso   1.00
O130   O     0.27089   0.84815   0.32770   0.00000  Uiso   1.00
O131   O     0.42398   0.57479   0.49411   0.00000  Uiso   1.00
O132   O     0.56163   0.64484   0.42137   0.00000  Uiso   1.00
C133   C     0.38744   0.81891   0.52075   0.00000  Uiso   1.00
O134   O     0.51449   0.98810   0.59588   0.00000  Uiso   1.00
C135   C     0.34839   0.85657   0.64653   0.00000  Uiso   1.00
O136   O     0.34450   0.74440   0.35381   0.00000  Uiso   1.00
O137   O     0.45858   0.71030   0.41112   0.00000  Uiso   1.00
C138   C     0.44812   0.69776   0.28411   0.00000  Uiso   1.00
C139   C     0.70263   1.11026   0.58472   0.00000  Uiso   1.00
C140   C     0.29179   0.54877   0.37947   0.00000  Uiso   1.00
O141   O     0.38152   0.67003   0.75918   0.00000  Uiso   1.00
O142   O     0.41229   0.55598   0.69058   0.00000  Uiso   1.00
O143   O     0.48076   0.82110   0.62956   0.00000  Uiso   1.00
O144   O     0.54016   0.73980   0.69726   0.00000  Uiso   1.00
C145   C     0.62133   0.93654   0.72286   0.00000  Uiso   1.00
C146   C     1.03365   0.12704   0.12532   0.00000  Uiso   1.00
O147   O     0.93475   0.09965   0.24294   0.00000  Uiso   1.00
C148   C     0.84049   0.94478   0.14964   0.00000  Uiso   1.00
C149   C     0.99229   0.97354   0.22729   0.00000  Uiso   1.00
C150   C     0.63694  -0.06934   0.22612   0.00000  Uiso   1.00
C151   C     0.55811   0.01674   0.31281   0.00000  Uiso   1.00
O152   O     0.89852   0.10426   0.51837   0.00000  Uiso   1.00
C153   C     0.85498   0.95912   0.42007   0.00000  Uiso   1.00
O154   O     0.90395   0.17588   0.34309   0.00000  Uiso   1.00
O155   O     0.73989   0.06588   0.31361   0.00000  Uiso   1.00
O156   O     0.78701   0.08256   0.42736   0.00000  Uiso   1.00
C157   C     0.66945   0.03252   0.91528   0.00000  Uiso   1.00
C158   C     0.85394   0.20337   0.94845   0.00000  Uiso   1.00
O159   O     0.73412   0.22862   0.88262   0.00000  Uiso   1.00
O160   O     0.97987   0.15034   0.62485   0.00000  Uiso   1.00
C161   C     0.84828  -0.04506   0.66547   0.00000  Uiso   1.00
C162   C     1.01699   0.10954   0.73992   0.00000  Uiso   1.00
O163   O     0.68668   0.12900   0.22631   0.00000  Uiso   1.00
C164   C     0.68589   0.09761   0.09854   0.00000  Uiso   1.00
C165   C     0.72607   0.28708   0.15797   0.00000  Uiso   1.00
C166   C     0.86361   0.23054   0.18099   0.00000  Uiso   1.00
C167   C     0.59100   0.40064   0.27555   0.00000  Uiso   1.00
O168   O     0.64117   0.57206   0.35085   0.00000  Uiso   1.00
C169   C     0.67986   0.29659   0.40463   0.00000  Uiso   1.00
O170   O     0.79719   0.23550   0.37089   0.00000  Uiso   1.00
O171   O     0.83601   0.35745   0.46206   0.00000  Uiso   1.00
C172   C     0.59526   0.49878   0.75438   0.00000  Uiso   1.00
C173   C     0.71023   0.62514   0.65410   0.00000  Uiso   1.00
O174   O     0.51708   0.50616   0.64096   0.00000  Uiso   1.00
C175   C     0.88208   0.53677   0.23875   0.00000  Uiso   1.00
O176   O     0.75694   0.51073   0.33184   0.00000  Uiso   1.00
O177   O     0.84385   0.41848   0.34721   0.00000  Uiso   1.00
O178   O     0.80660   0.14408   0.82576   0.00000  Uiso   1.00
O179   O     0.87150   0.13819   0.71407   0.00000  Uiso   1.00
C180   C     0.79681   0.25117   0.73031   0.00000  Uiso   1.00
C181   C     0.97682   0.30585   0.79320   0.00000  Uiso   1.00
O182   O     0.71231   0.58566   0.24019   0.00000  Uiso   1.00
C183   C     0.77980   0.69017   0.12862   0.00000  Uiso   1.00
C184   C     0.60178   0.49459   0.13103   0.00000  Uiso   1.00
C185   C     0.61107   0.66317   0.20049   0.00000  Uiso   1.00
C186   C     1.47958   1.14508   0.19564   0.00000  Uiso   1.00
C187   C     0.60508   0.39882   0.63700   0.00000  Uiso   1.00
C188   C     0.86084   0.70314   0.44918   0.00000  Uiso   1.00
O189   O     0.92194   0.60753   0.36661   0.00000  Uiso   1.00
C190   C     0.94672   0.78449   0.32771   0.00000  Uiso   1.00
O191   O     1.03625   0.76081   0.42897   0.00000  Uiso   1.00
O192   O     0.56359   0.76390   0.50596   0.00000  Uiso   1.00
C193   C     0.71509   0.76730   0.53446   0.00000  Uiso   1.00
O194   O     0.72771   0.94525   0.50598   0.00000  Uiso   1.00
O195   O     0.64345   0.85067   0.60790   0.00000  Uiso   1.00
O196   O     0.49917   0.63248   0.79475   0.00000  Uiso   1.00
C197   C     0.54625   0.59732   0.91017   0.00000  Uiso   1.00
C198   C     0.68818   0.76355   0.83070   0.00000  Uiso   1.00
C199   C     0.52625   0.76321   0.89631   0.00000  Uiso   1.00
H200   H     0.12447   0.33273   0.26970   0.00000  Uiso   1.00
H201   H     0.04042   0.35993   0.30262   0.00000  Uiso   1.00
H202   H     0.03508   0.30540   0.22579   0.00000  Uiso   1.00
H203   H     0.23985  -0.08591   0.02621   0.00000  Uiso   1.00
H204   H     0.13755  -0.20487   0.00996   0.00000  Uiso   1.00
H205   H     0.17824  -0.16555   0.08504   0.00000  Uiso   1.00
H206   H    -0.04782  -0.14381   1.09173   0.00000  Uiso   1.00
H207   H     0.01626  -0.17474   1.13255   0.00000  Uiso   1.00
H208   H    -0.03970  -0.25294   1.06520   0.00000  Uiso   1.00
H209   H     0.45280   0.22778   0.80254   0.00000  Uiso   1.00
H210   H     0.40573   0.24993   0.72991   0.00000  Uiso   1.00
H211   H     0.52156   0.29076   0.73944   0.00000  Uiso   1.00
H212   H     0.27101   1.04330   0.76177   0.00000  Uiso   1.00
H213   H     0.34392   1.03144   0.81054   0.00000  Uiso   1.00
H214   H     0.29655   0.95282   0.73949   0.00000  Uiso   1.00
H215   H     0.50522   1.03767   0.70763   0.00000  Uiso   1.00
H216   H     0.54449   1.11745   0.77443   0.00000  Uiso   1.00
H217   H     0.57507   1.16316   0.69241   0.00000  Uiso   1.00
H218   H     0.17066  -0.03029   0.85990   0.00000  Uiso   1.00
H219   H     0.17036   0.08107   0.87440   0.00000  Uiso   1.00
H220   H     0.09848  -0.00677   0.81774   0.00000  Uiso   1.00
H221   H     0.92231  -0.04534   0.96251   0.00000  Uiso   1.00
H222   H     0.95200  -0.00869   0.87533   0.00000  Uiso   1.00
H223   H     1.01897   0.07192   0.93670   0.00000  Uiso   1.00
H224   H     0.93858  -0.21928   0.86454   0.00000  Uiso   1.00
H225   H     0.94135  -0.23394   0.94092   0.00000  Uiso   1.00
H226   H     1.03334  -0.22284   0.89155   0.00000  Uiso   1.00
H227   H    -0.04605  -0.02990   0.54684   0.00000  Uiso   1.00
H228   H     0.06533   0.04583   0.57967   0.00000  Uiso   1.00
H229   H     0.05059   0.04903   0.50143   0.00000  Uiso   1.00
H230   H     0.21186  -0.06292   0.61450   0.00000  Uiso   1.00
H231   H     0.17541   0.01367   0.57744   0.00000  Uiso   1.00
H232   H     0.20845   0.03296   0.65935   0.00000  Uiso   1.00
H233   H     0.30527   0.23495   0.63494   0.00000  Uiso   1.00
H234   H     0.30054   0.22703   0.54724   0.00000  Uiso   1.00
H235   H     0.40909   0.29443   0.58239   0.00000  Uiso   1.00
H236   H     0.21073   0.86897  -0.10236   0.00000  Uiso   1.00
H237   H     0.15682   0.74302  -0.12756   0.00000  Uiso   1.00
H238   H     0.22908   0.84101  -0.17607   0.00000  Uiso   1.00
H239   H     0.28449   0.80620   0.00936   0.00000  Uiso   1.00
H240   H     0.36140   0.76793  -0.01536   0.00000  Uiso   1.00
H241   H     0.23336   0.68142  -0.02352   0.00000  Uiso   1.00
H242   H     0.47421   0.93842   0.92592   0.00000  Uiso   1.00
H243   H     0.41366   0.99416   0.92247   0.00000  Uiso   1.00
H244   H     0.44807   0.96673   0.85377   0.00000  Uiso   1.00
H245   H     0.12167   0.39731   0.39182   0.00000  Uiso   1.00
H246   H     0.10628   0.42540   0.46631   0.00000  Uiso   1.00
H247   H     0.01401   0.30790   0.43557   0.00000  Uiso   1.00
H248   H     0.03972   0.51383   0.46919   0.00000  Uiso   1.00
H249   H     0.02712   0.61541   0.48157   0.00000  Uiso   1.00
H250   H    -0.02888   0.52927   0.41801   0.00000  Uiso   1.00
H251   H     0.77285   0.49166   0.50161   0.00000  Uiso   1.00
H252   H     0.84766   0.55234   0.57307   0.00000  Uiso   1.00
H253   H     0.76411   0.43371   0.57517   0.00000  Uiso   1.00
H254   H     0.06138   0.37054   0.58796   0.00000  Uiso   1.00
H255   H    -0.01085   0.31278   0.65213   0.00000  Uiso   1.00
H256   H     0.09507   0.40832   0.66810   0.00000  Uiso   1.00
H257   H     1.31124   0.86472   0.15126   0.00000  Uiso   1.00
H258   H     1.41525   0.91411   0.18900   0.00000  Uiso   1.00
H259   H     1.41493   0.94785   0.11118   0.00000  Uiso   1.00
H260   H     0.17219   1.15279  -0.02606   0.00000  Uiso   1.00
H261   H     0.23620   1.27914  -0.04074   0.00000  Uiso   1.00
H262   H     0.19864   1.24879   0.03111   0.00000  Uiso   1.00
H263   H     0.49208   1.34169   1.03996   0.00000  Uiso   1.00
H264   H     0.43324   1.40092   1.05815   0.00000  Uiso   1.00
H265   H     0.44363   1.38329   0.98175   0.00000  Uiso   1.00
H266   H     0.27717   1.09112   0.94917   0.00000  Uiso   1.00
H267   H     0.38019   1.12157   0.98562   0.00000  Uiso   1.00
H268   H     0.37440   1.19266   0.92495   0.00000  Uiso   1.00
H269   H     0.24825   0.89901   0.51790   0.00000  Uiso   1.00
H270   H     0.22848   0.83079   0.44840   0.00000  Uiso   1.00
H271   H     0.18375   0.76894   0.52169   0.00000  Uiso   1.00
H272   H     0.98933   0.71880   0.55428   0.00000  Uiso   1.00
H273   H     0.98165   0.83016   0.55745   0.00000  Uiso   1.00
H274   H     1.06694   0.82423   0.59665   0.00000  Uiso   1.00
H275   H     0.09764   0.87047   0.23330   0.00000  Uiso   1.00
H276   H     0.08622   0.76035   0.26356   0.00000  Uiso   1.00
H277   H     0.16821   0.83220   0.20184   0.00000  Uiso   1.00
H278   H     0.00408   0.53267   0.82062   0.00000  Uiso   1.00
H279   H    -0.10119   0.43111   0.80922   0.00000  Uiso   1.00
H280   H    -0.08800   0.54598   0.84081   0.00000  Uiso   1.00
H281   H    -0.17158   0.53483   0.66584   0.00000  Uiso   1.00
H282   H    -0.19762   0.54785   0.74151   0.00000  Uiso   1.00
H283   H    -0.22042   0.42999   0.70759   0.00000  Uiso   1.00
H284   H    -0.00139   0.69755   0.66914   0.00000  Uiso   1.00
H285   H     0.08807   0.70175   0.70783   0.00000  Uiso   1.00
H286   H     0.00396   0.71593   0.75255   0.00000  Uiso   1.00
H287   H     0.40724   0.24504   0.27668   0.00000  Uiso   1.00
H288   H     0.30758   0.13032   0.30599   0.00000  Uiso   1.00
H289   H     0.34223   0.24514   0.34241   0.00000  Uiso   1.00
H290   H     0.33395   0.40470   0.23477   0.00000  Uiso   1.00
H291   H     0.28019   0.33066   0.17097   0.00000  Uiso   1.00
H292   H     0.38214   0.34477   0.18903   0.00000  Uiso   1.00
H293   H     0.60929   0.17397  -0.00553   0.00000  Uiso   1.00
H294   H     0.54623   0.20632  -0.05559   0.00000  Uiso   1.00
H295   H     0.62703   0.29300   0.00626   0.00000  Uiso   1.00
H296   H     0.83318   0.35805  -0.00316   0.00000  Uiso   1.00
H297   H     0.80645   0.44698  -0.00944   0.00000  Uiso   1.00
H298   H     0.87578   0.43552  -0.06918   0.00000  Uiso   1.00
H299   H     0.72337   0.45173   0.87736   0.00000  Uiso   1.00
H300   H     0.61718   0.33513   0.86088   0.00000  Uiso   1.00
H301   H     0.71824   0.36473   0.81140   0.00000  Uiso   1.00
H302   H     0.63220   0.07973   0.44395   0.00000  Uiso   1.00
H303   H     0.51951  -0.01169   0.44993   0.00000  Uiso   1.00
H304   H     0.60076  -0.03811   0.47157   0.00000  Uiso   1.00
H305   H     0.53123   0.17217   0.52284   0.00000  Uiso   1.00
H306   H     0.65066   0.25514   0.53987   0.00000  Uiso   1.00
H307   H     0.57294   0.21062   0.60229   0.00000  Uiso   1.00
H308   H     0.48624   0.09367   0.43107   0.00000  Uiso   1.00
H309   H     0.41502   0.07591   0.36151   0.00000  Uiso   1.00
H310   H     0.37594  -0.02058   0.41543   0.00000  Uiso   1.00
H311   H     0.48674   0.28845   0.48487   0.00000  Uiso   1.00
H312   H     0.40691   0.29462   0.43861   0.00000  Uiso   1.00
H313   H     0.49518   0.27747   0.40647   0.00000  Uiso   1.00
H314   H     0.03124   0.56277   0.08063   0.00000  Uiso   1.00
H315   H     0.03978   0.48127   0.13355   0.00000  Uiso   1.00
H316   H    -0.05060   0.43201   0.08621   0.00000  Uiso   1.00
H317   H    -0.02500   0.28519   1.05069   0.00000  Uiso   1.00
H318   H     0.10239   0.33461   1.05012   0.00000  Uiso   1.00
H319   H     0.04385   0.31372   0.97889   0.00000  Uiso   1.00
H320   H     0.24271   0.56792   0.54007   0.00000  Uiso   1.00
H321   H     0.33914   0.62219   0.59113   0.00000  Uiso   1.00
H322   H     0.23495   0.49984   0.60913   0.00000  Uiso   1.00
H323   H     0.13068   0.58287   0.55392   0.00000  Uiso   1.00
H324   H     0.15243   0.61510   0.63835   0.00000  Uiso   1.00
H325   H     0.08348   0.63773   0.59134   0.00000  Uiso   1.00
H326   H     0.44068   0.48545   0.33056   0.00000  Uiso   1.00
H327   H     0.40944   0.44439   0.40553   0.00000  Uiso   1.00
H328   H     0.45710   0.38728   0.36131   0.00000  Uiso   1.00
H329   H     0.59476   0.44129   0.46500   0.00000  Uiso   1.00
H330   H     0.54525   0.49785   0.51120   0.00000  Uiso   1.00
H331   H     0.66213   0.56447   0.49582   0.00000  Uiso   1.00
H332   H     0.26127   0.46197   0.75407   0.00000  Uiso   1.00
H333   H     0.17434   0.35320   0.78713   0.00000  Uiso   1.00
H334   H     0.19121   0.35987   0.69991   0.00000  Uiso   1.00
H335   H     0.18490   0.18007   0.79248   0.00000  Uiso   1.00
H336   H     0.28290   0.17718   0.77799   0.00000  Uiso   1.00
H337   H     0.21163   0.15672   0.71735   0.00000  Uiso   1.00
H338   H     0.42496   0.45967   0.82152   0.00000  Uiso   1.00
H339   H     0.39951   0.34265   0.83895   0.00000  Uiso   1.00
H340   H     0.31796   0.37564   0.86534   0.00000  Uiso   1.00
H341   H     0.19501   0.65685   0.74830   0.00000  Uiso   1.00
H342   H     0.14311   0.57643   0.81088   0.00000  Uiso   1.00
H343   H     0.18009   0.53425   0.74722   0.00000  Uiso   1.00
H344   H     0.29323   0.59016   0.91968   0.00000  Uiso   1.00
H345   H     0.34135   0.53671   0.86765   0.00000  Uiso   1.00
H346   H     0.22832   0.48975   0.86141   0.00000  Uiso   1.00
H347   H     0.07754   0.57972   0.95686   0.00000  Uiso   1.00
H348   H     0.00744   0.45476   0.92767   0.00000  Uiso   1.00
H349   H     0.12745   0.51787   0.92168   0.00000  Uiso   1.00
H350   H     0.31483   0.70932   0.10311   0.00000  Uiso   1.00
H351   H     0.40459   0.69642   0.06602   0.00000  Uiso   1.00
H352   H     0.37681   0.67337   0.14958   0.00000  Uiso   1.00
H353   H     0.39355   0.52858   0.04453   0.00000  Uiso   1.00
H354   H     0.31018   0.48387  -0.01147   0.00000  Uiso   1.00
H355   H     0.30133   0.41119   0.06165   0.00000  Uiso   1.00
H356   H     0.26275   0.47677   0.18981   0.00000  Uiso   1.00
H357   H     0.17413   0.38875   0.14836   0.00000  Uiso   1.00
H358   H     0.16496   0.49097   0.18063   0.00000  Uiso   1.00
H359   H     0.11501   0.58441   0.35039   0.00000  Uiso   1.00
H360   H     0.11872   0.68010   0.39480   0.00000  Uiso   1.00
H361   H     0.18861   0.64361   0.41625   0.00000  Uiso   1.00
H362   H     0.31324   0.75037   0.22264   0.00000  Uiso   1.00
H363   H     0.19260   0.69182   0.21613   0.00000  Uiso   1.00
H364   H     0.24516   0.62471   0.24262   0.00000  Uiso   1.00
H365   H     0.37916   0.87488   0.49542   0.00000  Uiso   1.00
H366   H     0.32655   0.74854   0.52870   0.00000  Uiso   1.00
H367   H     0.43928   0.80952   0.49859   0.00000  Uiso   1.00
H368   H     0.33495   0.91503   0.63180   0.00000  Uiso   1.00
H369   H     0.37761   0.86500   0.69459   0.00000  Uiso   1.00
H370   H     0.29211   0.78330   0.64072   0.00000  Uiso   1.00
H371   H     0.46416   0.76326   0.26006   0.00000  Uiso   1.00
H372   H     0.40702   0.63981   0.25245   0.00000  Uiso   1.00
H373   H     0.51150   0.70184   0.29734   0.00000  Uiso   1.00
H374   H     0.70341   1.04911   0.60755   0.00000  Uiso   1.00
H375   H     0.72145   1.17300   0.61440   0.00000  Uiso   1.00
H376   H     0.75574   1.13873   0.55001   0.00000  Uiso   1.00
H377   H     0.23584   0.52942   0.34868   0.00000  Uiso   1.00
H378   H     0.26366   0.53673   0.42888   0.00000  Uiso   1.00
H379   H     0.31535   0.49622   0.36692   0.00000  Uiso   1.00
H380   H     0.68765   0.94803   0.73608   0.00000  Uiso   1.00
H381   H     0.57264   0.91301   0.75955   0.00000  Uiso   1.00
H382   H     0.63649   1.00953   0.70677   0.00000  Uiso   1.00
H383   H     1.04185   0.08075   0.08698   0.00000  Uiso   1.00
H384   H     1.10131   0.18011   0.14360   0.00000  Uiso   1.00
H385   H     1.00334   0.16449   0.10397   0.00000  Uiso   1.00
H386   H     0.84772   0.89766   0.11379   0.00000  Uiso   1.00
H387   H     0.81732   0.98720   0.12684   0.00000  Uiso   1.00
H388   H     0.79184   0.89729   0.18582   0.00000  Uiso   1.00
H389   H     0.93417   0.92876   0.25928   0.00000  Uiso   1.00
H390   H     1.05273   1.02475   0.25618   0.00000  Uiso   1.00
H391   H     1.00253   0.92307   0.19150   0.00000  Uiso   1.00
H392   H     0.57398  -0.10115   0.19996   0.00000  Uiso   1.00
H393   H     0.64041  -0.12138   0.25852   0.00000  Uiso   1.00
H394   H     0.69008  -0.05481   0.19354   0.00000  Uiso   1.00
H395   H     0.57191   0.08730   0.33566   0.00000  Uiso   1.00
H396   H     0.54879  -0.03465   0.34731   0.00000  Uiso   1.00
H397   H     0.49935  -0.02035   0.27919   0.00000  Uiso   1.00
H398   H     0.92434   1.00736   0.40386   0.00000  Uiso   1.00
H399   H     0.81220   0.93619   0.37880   0.00000  Uiso   1.00
H400   H     0.84285   0.89223   0.44776   0.00000  Uiso   1.00
H401   H     0.61525  -0.00155   0.88076   0.00000  Uiso   1.00
H402   H     0.64726   0.04737   0.96045   0.00000  Uiso   1.00
H403   H     0.69484  -0.01931   0.92381   0.00000  Uiso   1.00
H404   H     0.90259   0.27524   0.92764   0.00000  Uiso   1.00
H405   H     0.87980   0.15394   0.95328   0.00000  Uiso   1.00
H406   H     0.82013   0.21510   0.98810   0.00000  Uiso   1.00
H407   H     0.80123  -0.05807   0.62971   0.00000  Uiso   1.00
H408   H     0.80513  -0.08437   0.70726   0.00000  Uiso   1.00
H409   H     0.88303  -0.08244   0.64948   0.00000  Uiso   1.00
H410   H     1.05633   0.18593   0.75927   0.00000  Uiso   1.00
H411   H     1.06059   0.08427   0.71951   0.00000  Uiso   1.00
H412   H     0.98049   0.06268   0.78036   0.00000  Uiso   1.00
H413   H     0.70811   0.04425   0.10243   0.00000  Uiso   1.00
H414   H     0.70837   0.13569   0.05080   0.00000  Uiso   1.00
H415   H     0.61173   0.05936   0.10219   0.00000  Uiso   1.00
H416   H     0.67429   0.27209   0.11825   0.00000  Uiso   1.00
H417   H     0.79434   0.34972   0.15203   0.00000  Uiso   1.00
H418   H     0.70214   0.29111   0.20472   0.00000  Uiso   1.00
H419   H     0.87711   0.25583   0.22468   0.00000  Uiso   1.00
H420   H     0.90430   0.30161   0.16041   0.00000  Uiso   1.00
H421   H     0.87316   0.16966   0.17193   0.00000  Uiso   1.00
H422   H     0.56981   0.34875   0.31391   0.00000  Uiso   1.00
H423   H     0.60917   0.36031   0.23998   0.00000  Uiso   1.00
H424   H     0.53592   0.40706   0.26105   0.00000  Uiso   1.00
H425   H     0.64676   0.27502   0.35673   0.00000  Uiso   1.00
H426   H     0.68733   0.36800   0.42472   0.00000  Uiso   1.00
H427   H     0.63702   0.23788   0.43816   0.00000  Uiso   1.00
H428   H     0.66098   0.51486   0.77591   0.00000  Uiso   1.00
H429   H     0.54092   0.42548   0.76847   0.00000  Uiso   1.00
H430   H     0.57405   0.54398   0.77130   0.00000  Uiso   1.00
H431   H     0.76870   0.62883   0.67589   0.00000  Uiso   1.00
H432   H     0.70037   0.68454   0.66333   0.00000  Uiso   1.00
H433   H     0.72838   0.63319   0.60511   0.00000  Uiso   1.00
H434   H     0.93383   0.51839   0.22901   0.00000  Uiso   1.00
H435   H     0.90075   0.60382   0.22122   0.00000  Uiso   1.00
H436   H     0.81779   0.48647   0.21289   0.00000  Uiso   1.00
H437   H     0.78859   0.30419   0.76161   0.00000  Uiso   1.00
H438   H     0.72847   0.18054   0.73028   0.00000  Uiso   1.00
H439   H     0.82155   0.26981   0.68393   0.00000  Uiso   1.00
H440   H     1.02181   0.35541   0.75983   0.00000  Uiso   1.00
H441   H     1.00882   0.27603   0.82262   0.00000  Uiso   1.00
H442   H     0.96148   0.34112   0.83036   0.00000  Uiso   1.00
H443   H     0.80794   0.64743   0.11260   0.00000  Uiso   1.00
H444   H     0.82389   0.74923   0.16185   0.00000  Uiso   1.00
H445   H     0.75230   0.71202   0.09250   0.00000  Uiso   1.00
H446   H     0.58666   0.51337   0.08482   0.00000  Uiso   1.00
H447   H     0.53772   0.43454   0.15403   0.00000  Uiso   1.00
H448   H     0.63769   0.45798   0.12602   0.00000  Uiso   1.00
H449   H     0.58705   0.69198   0.16296   0.00000  Uiso   1.00
H450   H     0.65661   0.72749   0.22997   0.00000  Uiso   1.00
H451   H     0.55360   0.60399   0.22823   0.00000  Uiso   1.00
H452   H     1.52447   1.14918   0.23507   0.00000  Uiso   1.00
H453   H     1.47689   1.21197   0.20390   0.00000  Uiso   1.00
H454   H     1.50800   1.14818   0.14932   0.00000  Uiso   1.00
H455   H     0.54421   0.33375   0.65006   0.00000  Uiso   1.00
H456   H     0.65341   0.38530   0.65965   0.00000  Uiso   1.00
H457   H     0.60031   0.38506   0.58864   0.00000  Uiso   1.00
H458   H     0.87670   0.77785   0.46409   0.00000  Uiso   1.00
H459   H     0.84703   0.65746   0.49250   0.00000  Uiso   1.00
H460   H     0.79927   0.66495   0.41826   0.00000  Uiso   1.00
H461   H     0.89591   0.80236   0.33957   0.00000  Uiso   1.00
H462   H     0.92468   0.74696   0.28196   0.00000  Uiso   1.00
H463   H     1.01573   0.85879   0.32533   0.00000  Uiso   1.00
H464   H     0.66210   0.69711   0.55189   0.00000  Uiso   1.00
H465   H     0.78279   0.80129   0.56197   0.00000  Uiso   1.00
H466   H     0.71277   0.73947   0.48669   0.00000  Uiso   1.00
H467   H     0.56572   0.54471   0.89350   0.00000  Uiso   1.00
H468   H     0.47476   0.56331   0.93065   0.00000  Uiso   1.00
H469   H     0.58460   0.63724   0.95250   0.00000  Uiso   1.00
H470   H     0.72768   0.77668   0.87458   0.00000  Uiso   1.00
H471   H     0.70236   0.82859   0.80188   0.00000  Uiso   1.00
H472   H     0.70035   0.71784   0.79936   0.00000  Uiso   1.00
H473   H     0.51723   0.81479   0.86461   0.00000  Uiso   1.00
H474   H     0.56297   0.79655   0.94033   0.00000  Uiso   1.00
H475   H     0.45251   0.70490   0.90966   0.00000  Uiso   1.00
loop_
_geom_bond_atom_site_label_1
_geom_bond_atom_site_label_2
_geom_bond_distance
_geom_bond_site_symmetry_2
_ccdc_geom_bond_type
Si1    O53     1.609   .     S
Si1    O95     1.606   .     S
Si1    O79     1.589   1_545 S
Si1    O82     1.597   1_545 S
Si2    C52     1.876   .     S
Si2    O56     1.620   .     S
Si2    O147    1.620   1_455 S
Si2    O154    1.620   1_455 S
Si3    O53     1.620   .     S
Si3    C54     1.900   .     S
Si3    C55     1.882   1_554 S
Si3    O61     1.628   1_554 S
Si4    O57     1.627   .     S
Si4    O104    1.544   .     S
Si4    O86     1.600   1_545 S
Si4    O90     1.617   1_545 S
Si5    C65     1.847   .     S
Si5    O72     1.657   .     S
Si5    O152    1.661   1_455 S
Si5    O160    1.593   1_455 S
Si6    O56     1.599   .     S
Si6    O57     1.601   .     S
Si6    O73     1.637   .     S
Si6    O98     1.656   .     S
Si7    C58     1.759   .     S
Si7    O67     1.568   .     S
Si7    C59     1.861   1_545 S
Si7    C60     1.911   1_545 S
Si8    O61     1.601   .     S
Si8    C62     1.793   .     S
Si8    C63     1.910   1_455 S
Si8    C64     1.867   1_455 S
Si9    C66     1.824   .     S
Si9    O67     1.616   .     S
Si9    C68     1.877   .     S
Si9    O107    1.592   .     S
Si10   C69     1.868   .     S
Si10   C70     1.837   .     S
Si10   C71     1.884   1_554 S
Si10   O121    1.611   1_554 S
Si11   O72     1.658   .     S
Si11   O73     1.682   .     S
Si11   C74     1.927   .     S
Si11   O110    1.611   .     S
Si12   C75     1.820   .     S
Si12   O77     1.603   .     S
Si12   C76     1.903   1_455 S
Si12   O171    1.586   1_455 S
Si13   O77     1.586   .     S
Si13   C78     1.814   .     S
Si13   O92     1.596   .     S
Si13   C112    1.837   .     S
Si14   O79     1.594   .     S
Si14   O88     1.598   .     S
Si14   C80     1.851   1_455 S
Si14   C186    1.918   1_455 S
Si15   C81     1.869   .     S
Si15   O82     1.587   .     S
Si15   C83     1.853   1_554 S
Si15   C84     1.854   1_554 S
Si16   C85     1.841   .     S
Si16   O86     1.516   .     S
Si16   C87     1.873   1_455 S
Si16   O191    1.588   1_455 S
Si17   O88     1.603   .     S
Si17   C89     1.841   .     S
Si17   O90     1.606   .     S
Si17   O130    1.606   .     S
Si18   C91     1.871   .     S
Si18   O92     1.578   .     S
Si18   C93     1.808   .     S
Si18   C94     1.847   .     S
Si19   O95     1.609   .     S
Si19   C96     1.739   .     S
Si19   C97     1.892   .     S
Si19   O98     1.606   .     S
Si20   C99     1.909   .     S
Si20   C100    1.897   .     S
Si20   C101    1.836   1_554 S
Si20   O159    1.579   1_554 S
Si21   C102    1.896   .     S
Si21   C103    1.905   .     S
Si21   O134    1.594   1_545 S
Si21   C139    1.862   1_545 S
Si22   O104    1.641   .     S
Si22   C105    1.853   .     S
Si22   C106    1.884   .     S
Si22   O107    1.546   .     S
Si23   C108    1.860   .     S
Si23   O125    1.531   .     S
Si23   C109    1.869   1_554 S
Si23   C120    1.876   1_554 S
Si24   O110    1.628   .     S
Si24   C111    1.867   .     S
Si24   O122    1.609   .     S
Si24   O131    1.663   .     S
Si25   C113    1.834   .     S
Si25   C114    1.919   .     S
Si25   O132    1.618   .     S
Si25   O168    1.583   .     S
Si26   C115    1.877   .     S
Si26   C116    1.785   .     S
Si26   C117    1.913   .     S
Si26   O123    1.617   .     S
Si27   C118    1.914   .     S
Si27   C119    1.778   .     S
Si27   O121    1.559   .     S
Si27   O141    1.637   .     S
Si28   O122    1.603   .     S
Si28   O123    1.601   .     S
Si28   O142    1.569   .     S
Si28   O174    1.587   .     S
Si29   C124    1.882   .     S
Si29   O125    1.593   .     S
Si29   C126    1.846   .     S
Si29   C127    1.919   .     S
Si30   C128    1.881   .     S
Si30   C129    1.919   .     S
Si30   O130    1.601   .     S
Si30   O136    1.580   .     S
Si31   O131    1.624   .     S
Si31   O132    1.560   .     S
Si31   O137    1.618   .     S
Si31   O192    1.594   .     S
Si32   C133    1.879   .     S
Si32   O134    1.569   .     S
Si32   C135    1.775   .     S
Si32   O143    1.582   .     S
Si33   O136    1.567   .     S
Si33   O137    1.607   .     S
Si33   C138    1.860   .     S
Si33   C140    1.888   .     S
Si34   O141    1.619   .     S
Si34   O142    1.598   .     S
Si34   O144    1.626   .     S
Si34   O196    1.562   .     S
Si35   O143    1.580   .     S
Si35   O144    1.591   .     S
Si35   C145    1.903   .     S
Si35   O195    1.639   .     S
Si36   C146    1.917   .     S
Si36   O147    1.613   .     S
Si36   C148    1.901   1_545 S
Si36   C149    1.835   1_545 S
Si37   C150    1.837   .     S
Si37   C151    1.855   .     S
Si37   O155    1.571   .     S
Si37   O163    1.548   .     S
Si38   O152    1.655   .     S
Si38   O156    1.600   .     S
Si38   C153    1.889   1_545 S
Si38   O194    1.574   1_545 S
Si39   O154    1.565   .     S
Si39   O155    1.578   .     S
Si39   O156    1.572   .     S
Si39   O170    1.626   .     S
Si40   C157    1.844   .     S
Si40   C158    1.841   .     S
Si40   O159    1.603   .     S
Si40   O178    1.567   .     S
Si41   O160    1.555   .     S
Si41   C161    1.913   .     S
Si41   C162    1.890   .     S
Si41   O179    1.641   .     S
Si42   O163    1.617   .     S
Si42   C164    1.855   .     S
Si42   C165    1.844   .     S
Si42   C166    1.862   .     S
Si43   C167    1.865   .     S
Si43   O168    1.638   .     S
Si43   O176    1.589   .     S
Si43   O182    1.590   .     S
Si44   C169    1.786   .     S
Si44   O170    1.606   .     S
Si44   O171    1.576   .     S
Si44   O177    1.615   .     S
Si45   C172    1.844   .     S
Si45   C173    1.879   .     S
Si45   O174    1.616   .     S
Si45   C187    1.863   .     S
Si46   C175    1.906   .     S
Si46   O176    1.607   .     S
Si46   O177    1.610   .     S
Si46   O189    1.584   .     S
Si47   O178    1.657   .     S
Si47   O179    1.571   .     S
Si47   C180    1.887   .     S
Si47   C181    1.826   .     S
Si48   O182    1.607   .     S
Si48   C183    1.869   .     S
Si48   C184    1.885   .     S
Si48   C185    1.861   .     S
Si49   C188    1.842   .     S
Si49   O189    1.551   .     S
Si49   C190    1.841   .     S
Si49   O191    1.611   .     S
Si50   O192    1.619   .     S
Si50   C193    1.823   .     S
Si50   O194    1.609   .     S
Si50   O195    1.611   .     S
Si51   O196    1.632   .     S
Si51   C197    1.866   .     S
Si51   C198    1.886   .     S
Si51   C199    1.842   .     S
C52    H200    1.070   .     S
C52    H201    1.193   .     S
C52    H202    1.068   .     S
C54    H203    1.142   .     S
C54    H204    1.099   .     S
C54    H205    1.062   .     S
C55    H206    1.088   .     S
C55    H207    1.069   .     S
C55    H208    1.137   .     S
C55    Si3     1.882   1_556 S
C58    H209    1.094   .     S
C58    H210    1.114   .     S
C58    H211    1.075   .     S
C59    H212    1.097   .     S
C59    H213    1.114   .     S
C59    H214    1.091   .     S
C59    Si7     1.861   1_565 S
C60    H215    1.030   .     S
C60    H216    1.149   .     S
C60    H217    1.155   .     S
C60    Si7     1.911   1_565 S
O61    Si3     1.628   1_556 S
C62    H218    1.082   .     S
C62    H219    1.081   .     S
C62    H220    1.074   .     S
C63    H221    1.138   .     S
C63    H222    1.117   .     S
C63    H223    1.097   .     S
C63    Si8     1.910   1_655 S
C64    H224    1.076   .     S
C64    H225    1.106   .     S
C64    H226    1.154   .     S
C64    Si8     1.867   1_655 S
C65    H227    1.104   .     S
C65    H228    1.078   .     S
C65    H229    1.063   .     S
C66    H230    1.146   .     S
C66    H231    1.055   .     S
C66    H232    1.143   .     S
C68    H233    1.135   .     S
C68    H234    1.121   .     S
C68    H235    1.143   .     S
C69    H236    1.098   .     S
C69    H237    1.089   .     S
C69    H238    1.070   .     S
C70    H239    1.131   .     S
C70    H240    1.149   .     S
C70    H241    1.126   .     S
C71    H242    1.096   .     S
C71    H243    1.069   .     S
C71    H244    1.075   .     S
C71    Si10    1.884   1_556 S
C74    H245    1.103   .     S
C74    H246    1.083   .     S
C74    H247    1.124   .     S
C75    H248    1.100   .     S
C75    H249    1.051   .     S
C75    H250    1.138   .     S
C76    H251    1.186   .     S
C76    H252    1.112   .     S
C76    H253    1.108   .     S
C76    Si12    1.903   1_655 S
C78    H254    1.124   .     S
C78    H255    1.044   .     S
C78    H256    1.126   .     S
O79    Si1     1.589   1_565 S
C80    H257    1.108   .     S
C80    H258    1.119   .     S
C80    H259    1.150   .     S
C80    Si14    1.851   1_655 S
C81    H260    1.132   .     S
C81    H261    1.052   .     S
C81    H262    1.052   .     S
O82    Si1     1.597   1_565 S
C83    H263    1.133   .     S
C83    H264    1.126   .     S
C83    H265    1.098   .     S
C83    Si15    1.853   1_556 S
C84    H266    1.027   .     S
C84    H267    1.135   .     S
C84    H268    1.083   .     S
C84    Si15    1.854   1_556 S
C85    H269    1.113   .     S
C85    H270    1.066   .     S
C85    H271    1.132   .     S
O86    Si4     1.600   1_565 S
C87    H272    1.099   .     S
C87    H273    1.156   .     S
C87    H274    1.060   .     S
C87    Si16    1.873   1_655 S
C89    H275    1.137   .     S
C89    H276    1.141   .     S
C89    H277    1.081   .     S
O90    Si4     1.617   1_565 S
C91    H278    1.067   .     S
C91    H279    1.081   .     S
C91    H280    1.070   .     S
C93    H281    1.058   .     S
C93    H282    1.139   .     S
C93    H283    1.107   .     S
C94    H284    1.131   .     S
C94    H285    1.054   .     S
C94    H286    1.166   .     S
C96    H287    1.087   .     S
C96    H288    1.122   .     S
C96    H289    1.094   .     S
C97    H290    1.086   .     S
C97    H291    1.081   .     S
C97    H292    1.102   .     S
C99    H293    1.100   .     S
C99    H294    1.133   .     S
C99    H295    1.102   .     S
C100   H296    1.058   .     S
C100   H297    1.153   .     S
C100   H298    1.128   .     S
C101   H299    1.144   .     S
C101   H300    1.113   .     S
C101   H301    1.172   .     S
C101   Si20    1.836   1_556 S
C102   H302    1.101   .     S
C102   H303    1.084   .     S
C102   H304    1.101   .     S
C103   H305    1.134   .     S
C103   H306    1.105   .     S
C103   H307    1.106   .     S
C105   H308    1.081   .     S
C105   H309    1.132   .     S
C105   H310    1.117   .     S
C106   H311    1.019   .     S
C106   H312    1.132   .     S
C106   H313    1.100   .     S
C108   H314    1.090   .     S
C108   H315    1.101   .     S
C108   H316    1.051   .     S
C109   H317    1.167   .     S
C109   H318    1.122   .     S
C109   H319    1.082   .     S
C109   Si23    1.869   1_556 S
C111   H320    1.134   .     S
C111   H321    1.121   .     S
C111   H322    1.099   .     S
C112   H323    1.153   .     S
C112   H324    1.115   .     S
C112   H325    1.084   .     S
C113   H326    1.122   .     S
C113   H327    1.056   .     S
C113   H328    1.103   .     S
C114   H329    1.078   .     S
C114   H330    1.148   .     S
C114   H331    1.084   .     S
C115   H332    1.129   .     S
C115   H333    1.088   .     S
C115   H334    1.110   .     S
C116   H335    1.102   .     S
C116   H336    1.134   .     S
C116   H337    1.074   .     S
C117   H338    1.109   .     S
C117   H339    1.101   .     S
C117   H340    1.122   .     S
C118   H341    1.126   .     S
C118   H342    1.084   .     S
C118   H343    1.072   .     S
C119   H344    1.140   .     S
C119   H345    1.132   .     S
C119   H346    1.080   .     S
C120   H347    1.109   .     S
C120   H348    1.084   .     S
C120   H349    1.111   .     S
C120   Si23    1.876   1_556 S
O121   Si10    1.611   1_556 S
C124   H350    1.095   .     S
C124   H351    1.119   .     S
C124   H352    1.154   .     S
C126   H353    1.110   .     S
C126   H354    1.139   .     S
C126   H355    1.116   .     S
C127   H356    1.114   .     S
C127   H357    1.064   .     S
C127   H358    1.115   .     S
C128   H359    1.119   .     S
C128   H360    1.088   .     S
C128   H361    1.052   .     S
C129   H362    1.100   .     S
C129   H363    1.133   .     S
C129   H364    1.097   .     S
C133   H365    1.134   .     S
C133   H366    1.073   .     S
C133   H367    1.104   .     S
O134   Si21    1.594   1_565 S
C135   H368    1.135   .     S
C135   H369    1.139   .     S
C135   H370    1.059   .     S
C138   H371    1.072   .     S
C138   H372    1.059   .     S
C138   H373    1.124   .     S
C139   H374    1.112   .     S
C139   H375    1.075   .     S
C139   H376    1.085   .     S
C139   Si21    1.862   1_565 S
C140   H377    1.093   .     S
C140   H378    1.145   .     S
C140   H379    1.148   .     S
C145   H380    1.121   .     S
C145   H381    1.072   .     S
C145   H382    1.112   .     S
C146   H383    1.160   .     S
C146   H384    1.100   .     S
C146   H385    1.105   .     S
O147   Si2     1.620   1_655 S
C148   H386    1.124   .     S
C148   H387    1.090   .     S
C148   H388    1.107   .     S
C148   Si36    1.901   1_565 S
C149   H389    1.117   .     S
C149   H390    1.121   .     S
C149   H391    1.189   .     S
C149   Si36    1.835   1_565 S
C150   H392    1.100   .     S
C150   H393    1.126   .     S
C150   H394    1.085   .     S
C151   H395    1.126   .     S
C151   H396    1.065   .     S
C151   H397    1.139   .     S
O152   Si5     1.661   1_655 S
C153   H398    1.093   .     S
C153   H399    1.099   .     S
C153   H400    1.152   .     S
C153   Si38    1.889   1_565 S
O154   Si2     1.620   1_655 S
C157   H401    1.100   .     S
C157   H402    1.114   .     S
C157   H403    1.154   .     S
C158   H404    1.099   .     S
C158   H405    1.113   .     S
C158   H406    1.106   .     S
O159   Si20    1.579   1_556 S
O160   Si5     1.593   1_655 S
C161   H407    1.075   .     S
C161   H408    1.129   .     S
C161   H409    1.111   .     S
C162   H410    1.109   .     S
C162   H411    1.125   .     S
C162   H412    1.108   .     S
C164   H413    1.120   .     S
C164   H414    1.159   .     S
C164   H415    1.107   .     S
C165   H416    1.186   .     S
C165   H417    1.082   .     S
C165   H418    1.103   .     S
C166   H419    1.000   .     S
C166   H420    1.067   .     S
C166   H421    1.089   .     S
C167   H422    1.095   .     S
C167   H423    1.143   .     S
C167   H424    1.081   .     S
C169   H425    1.148   .     S
C169   H426    1.156   .     S
C169   H427    1.107   .     S
O171   Si12    1.586   1_655 S
C172   H428    1.146   .     S
C172   H429    1.088   .     S
C172   H430    1.037   .     S
C173   H431    1.111   .     S
C173   H432    1.070   .     S
C173   H433    1.090   .     S
C175   H434    1.115   .     S
C175   H435    1.018   .     S
C175   H436    1.124   .     S
C180   H437    1.143   .     S
C180   H438    1.124   .     S
C180   H439    1.068   .     S
C181   H440    1.051   .     S
C181   H441    1.124   .     S
C181   H442    1.085   .     S
C183   H443    1.089   .     S
C183   H444    1.102   .     S
C183   H445    1.082   .     S
C184   H446    1.124   .     S
C184   H447    1.131   .     S
C184   H448    1.073   .     S
C185   H449    1.133   .     S
C185   H450    1.101   .     S
C185   H451    1.119   .     S
C186   H452    1.148   .     S
C186   H453    1.109   .     S
C186   H454    1.102   .     S
C186   Si14    1.918   1_655 S
C187   H455    1.056   .     S
C187   H456    1.108   .     S
C187   H457    1.059   .     S
C188   H458    1.115   .     S
C188   H459    1.139   .     S
C188   H460    1.135   .     S
C190   H461    1.103   .     S
C190   H462    1.108   .     S
C190   H463    1.158   .     S
O191   Si16    1.588   1_655 S
C193   H464    1.074   .     S
C193   H465    1.176   .     S
C193   H466    1.109   .     S
O194   Si38    1.574   1_565 S
C197   H467    1.120   .     S
C197   H468    1.154   .     S
C197   H469    1.110   .     S
C198   H470    1.132   .     S
C198   H471    1.130   .     S
C198   H472    1.089   .     S
C199   H473    1.159   .     S
C199   H474    1.112   .     S
C199   H475    1.156   .     S
