data_333-15-11-10-15-30-7
_audit_creation_date              2025-03-07
_audit_creation_method            'Materials Studio'
_symmetry_space_group_name_H-M    'P1'
_symmetry_Int_Tables_number       1
_symmetry_cell_setting            triclinic
loop_
_symmetry_equiv_pos_as_xyz
  x,y,z
_cell_length_a                    17.3231
_cell_length_b                    15.2224
_cell_length_c                    18.3915
_cell_angle_alpha                 93.6817
_cell_angle_beta                  89.9034
_cell_angle_gamma                 121.0997
loop_
_atom_site_label
_atom_site_type_symbol
_atom_site_fract_x
_atom_site_fract_y
_atom_site_fract_z
_atom_site_U_iso_or_equiv
_atom_site_adp_type
_atom_site_occupancy
Si1    Si   -0.03946   0.11606   0.23684   0.00000  Uiso   1.00
Si2    Si    0.15679  -0.00686   0.41208   0.00000  Uiso   1.00
Si3    Si   -0.01121   0.17687   0.52688   0.00000  Uiso   1.00
Si4    Si    0.12277   0.12597   0.31206   0.00000  Uiso   1.00
Si5    Si    0.20312   0.16373   0.74498   0.00000  Uiso   1.00
Si6    Si   -0.01755   0.48120   0.23351   0.00000  Uiso   1.00
Si7    Si    0.12270   0.47530   0.01474   0.00000  Uiso   1.00
Si8    Si    0.11982   0.30494   0.41335   0.00000  Uiso   1.00
Si9    Si    0.00659   0.49170   0.54755   0.00000  Uiso   1.00
Si10   Si    0.12496   0.46908   0.32244   0.00000  Uiso   1.00
Si11   Si   -0.00454   0.49215   0.90849   0.00000  Uiso   1.00
Si12   Si    0.14457   0.50787   0.66222   0.00000  Uiso   1.00
Si13   Si    0.15446   0.64223   0.14031   0.00000  Uiso   1.00
Si14   Si    0.14908   0.63947   0.44228   0.00000  Uiso   1.00
Si15   Si    0.00927   0.84664   0.50396   0.00000  Uiso   1.00
Si16   Si    0.17331   0.81163   0.34785   0.00000  Uiso   1.00
Si17   Si    0.21419   1.12703   0.90635   0.00000  Uiso   1.00
Si18   Si    0.49328  -0.04075   0.16964   0.00000  Uiso   1.00
Si19   Si    0.24935   0.15587   0.19398   0.00000  Uiso   1.00
Si20   Si    0.43489   0.02545   0.03504   0.00000  Uiso   1.00
Si21   Si    0.34260   0.17740   0.45038   0.00000  Uiso   1.00
Si22   Si    0.54065   0.14015   0.69588   0.00000  Uiso   1.00
Si23   Si    0.27466   0.48912   0.22089   0.00000  Uiso   1.00
Si24   Si    0.58175   0.52222  -0.04713   0.00000  Uiso   1.00
Si25   Si    0.59166   0.32883   0.79504   0.00000  Uiso   1.00
Si26   Si    0.32117   0.80347   0.25148   0.00000  Uiso   1.00
Si27   Si    0.49331   0.67988   0.46799   0.00000  Uiso   1.00
Si28   Si    0.29620   0.81539   0.54522   0.00000  Uiso   1.00
Si29   Si    0.45144   0.77479   0.34744   0.00000  Uiso   1.00
Si30   Si    0.42148   0.70100   0.86048   0.00000  Uiso   1.00
Si31   Si    0.68146   0.14956   0.23675   0.00000  Uiso   1.00
Si32   Si    0.78500   0.15160   0.01438   0.00000  Uiso   1.00
Si33   Si    0.81342  -0.00136   0.45076   0.00000  Uiso   1.00
Si34   Si    0.83382   0.15340   0.33531   0.00000  Uiso   1.00
Si35   Si    0.89311   0.20003   0.66205   0.00000  Uiso   1.00
Si36   Si    0.81468   0.31808   0.13111   0.00000  Uiso   1.00
Si37   Si    0.67414   0.42214   0.24464   0.00000  Uiso   1.00
Si38   Si    0.84393   0.46721   0.00922   0.00000  Uiso   1.00
Si39   Si    0.85926   0.33852   0.43415   0.00000  Uiso   1.00
Si40   Si    0.73842   0.50510   0.54886   0.00000  Uiso   1.00
Si41   Si    0.84787   0.49293   0.33117   0.00000  Uiso   1.00
Si42   Si    0.89192   0.36255   0.76609   0.00000  Uiso   1.00
Si43   Si    0.74284   0.50407   0.88672   0.00000  Uiso   1.00
Si44   Si    0.87359   0.50610   0.65956   0.00000  Uiso   1.00
Si45   Si    0.90672   0.69327   0.05608   0.00000  Uiso   1.00
Si46   Si    0.61944   0.77851   0.28238   0.00000  Uiso   1.00
Si47   Si    0.84350   0.66219   0.43284   0.00000  Uiso   1.00
Si48   Si    0.66024   0.85815   0.54366   0.00000  Uiso   1.00
Si49   Si    0.77700   0.79529   0.37188   0.00000  Uiso   1.00
Si50   Si    0.87869   0.66175   0.77897   0.00000  Uiso   1.00
Si51   Si    0.62474   0.79749   0.84507   0.00000  Uiso   1.00
C52    C     0.00914   0.21299   0.17737   0.00000  Uiso   1.00
C53    C     0.87809   0.00240   0.17370   0.00000  Uiso   1.00
C54    C     0.07625   0.15578   0.56589   0.00000  Uiso   1.00
O55    O     0.03077   0.08432   0.27059   0.00000  Uiso   1.00
O56    O     0.12382   0.03505   0.34986   0.00000  Uiso   1.00
C57    C     0.10302   0.17518   0.75930   0.00000  Uiso   1.00
C58    C     0.29580   0.29545   0.71737   0.00000  Uiso   1.00
C59    C     0.18871   1.05835   0.67792   0.00000  Uiso   1.00
C60    C     0.03916   0.37155   0.06017   0.00000  Uiso   1.00
C61    C     0.21193   0.44569   0.98903   0.00000  Uiso   1.00
O62    O     0.03779   0.25984   0.46803   0.00000  Uiso   1.00
O63    O     0.13794   0.21567   0.37320   0.00000  Uiso   1.00
C64    C     0.21841   0.40136   0.46688   0.00000  Uiso   1.00
O65    O     0.02951   0.44489   0.28909   0.00000  Uiso   1.00
O66    O     0.10940   0.36733   0.35431   0.00000  Uiso   1.00
O67    O     0.07895   0.49195   0.94660   0.00000  Uiso   1.00
C68    C     0.03878   0.62884   0.89658   0.00000  Uiso   1.00
O69    O     0.07064   0.46807   0.59433   0.00000  Uiso   1.00
C70    C     0.14167   0.39329   0.69860   0.00000  Uiso   1.00
C71    C     0.13293   0.58334   0.73622   0.00000  Uiso   1.00
C72    C     0.25933   0.58157   0.62574   0.00000  Uiso   1.00
O73    O     0.06571   0.57147   0.18766   0.00000  Uiso   1.00
O74    O     0.16746   0.57420   0.07635   0.00000  Uiso   1.00
C75    C     0.13370   0.72881   0.09376   0.00000  Uiso   1.00
O76    O     0.06824   0.58341   0.49677   0.00000  Uiso   1.00
O77    O     0.15820   0.55704   0.38995   0.00000  Uiso   1.00
C78    C     0.06319   0.79253   0.56225   0.00000  Uiso   1.00
O79    O     0.07442   0.94593   0.46590   0.00000  Uiso   1.00
C80    C     0.94142   0.87518   0.56744   0.00000  Uiso   1.00
C81    C     0.08384   0.78761   0.27948   0.00000  Uiso   1.00
O82    O     0.13113   0.71306   0.39481   0.00000  Uiso   1.00
O83    O     0.18869   0.91406   0.39245   0.00000  Uiso   1.00
C84    C     0.29440   1.25113   0.96269   0.00000  Uiso   1.00
O85    O     0.24034   1.15210   0.82494   0.00000  Uiso   1.00
C86    C     1.09153   1.08117   0.92638   0.00000  Uiso   1.00
C87    C     0.49913   0.85553   0.11767   0.00000  Uiso   1.00
C88    C     0.17792   0.12035   0.10752   0.00000  Uiso   1.00
C89    C     0.27449   0.05324   0.21775   0.00000  Uiso   1.00
C90    C     0.36489   0.27405   0.18377   0.00000  Uiso   1.00
O91    O     0.19957   0.17543   0.25911   0.00000  Uiso   1.00
O92    O     0.48174   0.02449   0.10831   0.00000  Uiso   1.00
C93    C     0.45113   0.15305   0.03550   0.00000  Uiso   1.00
C94    C     0.32067  -0.08295   1.03544   0.00000  Uiso   1.00
C95    C     0.48762   0.00688   0.95212   0.00000  Uiso   1.00
O96    O     0.24144   0.08806   0.45177   0.00000  Uiso   1.00
C97    C     0.35636   0.27718   0.38816   0.00000  Uiso   1.00
C98    C     0.36786   0.24393   0.54292   0.00000  Uiso   1.00
C99    C     0.42193   0.13176   0.42083   0.00000  Uiso   1.00
C100   C     0.41822   0.10046   0.70749   0.00000  Uiso   1.00
C101   C     0.54861   0.03548   0.73508   0.00000  Uiso   1.00
C102   C     0.56878   0.15268   0.59715   0.00000  Uiso   1.00
C103   C     0.22419   0.37269   0.15869   0.00000  Uiso   1.00
C104   C     0.34003   0.47609   0.29236   0.00000  Uiso   1.00
C105   C     0.35726   0.60149   0.16734   0.00000  Uiso   1.00
O106   O     0.20320   0.50982   0.26402   0.00000  Uiso   1.00
C107   C     0.54472   0.41759   0.01155   0.00000  Uiso   1.00
C108   C     0.58652   0.62205   0.01636   0.00000  Uiso   1.00
C109   C     0.48451   0.48771   0.88610   0.00000  Uiso   1.00
C110   C     0.51881   0.25985   0.87175   0.00000  Uiso   1.00
O111   O     0.60002   0.25042   0.74005   0.00000  Uiso   1.00
C112   C     0.54993   0.39424   0.73925   0.00000  Uiso   1.00
O113   O     0.25113   0.71843   0.18636   0.00000  Uiso   1.00
O114   O     0.40660   0.90385   0.22232   0.00000  Uiso   1.00
O115   O     0.26450   0.83636   0.30519   0.00000  Uiso   1.00
C116   C     0.44455   0.62205   0.55404   0.00000  Uiso   1.00
C117   C     0.50859   0.58259   0.41251   0.00000  Uiso   1.00
O118   O     0.24251   0.70885   0.48835   0.00000  Uiso   1.00
C119   C     0.41359   0.85635   0.56595   0.00000  Uiso   1.00
C120   C     0.30492   0.92822   0.50988   0.00000  Uiso   1.00
C121   C     0.24865   0.79585   0.63632   0.00000  Uiso   1.00
O122   O     0.36261   0.74652   0.29710   0.00000  Uiso   1.00
O123   O     0.43294   0.70736   0.41931   0.00000  Uiso   1.00
C124   C     0.50946   0.91351   0.37260   0.00000  Uiso   1.00
C125   C     0.36252   0.70667   0.94431   0.00000  Uiso   1.00
C126   C     0.35198   0.57164   0.81437   0.00000  Uiso   1.00
C127   C     0.42000   0.79603   0.79527   0.00000  Uiso   1.00
O128   O     0.59623   0.03713   0.20503   0.00000  Uiso   1.00
C129   C     0.63046   0.18567   0.31572   0.00000  Uiso   1.00
C130   C     0.86807   0.14790   0.95391   0.00000  Uiso   1.00
C131   C     0.72623   0.03843   0.05500   0.00000  Uiso   1.00
C132   C     0.70113   0.17292   0.96565   0.00000  Uiso   1.00
O133   O     0.90390   0.07030   0.49518   0.00000  Uiso   1.00
O134   O     0.91777   0.15732   0.29916   0.00000  Uiso   1.00
O135   O     0.76108   0.13427   0.27354   0.00000  Uiso   1.00
O136   O     0.79891   0.06210   0.39088   0.00000  Uiso   1.00
O137   O     0.95681   0.22703   0.59367   0.00000  Uiso   1.00
C138   C     0.77888   0.15462   0.63293   0.00000  Uiso   1.00
C139   C     0.89424   0.09893   0.70839   0.00000  Uiso   1.00
O140   O     0.72322   0.23944   0.17830   0.00000  Uiso   1.00
O141   O     0.83293   0.24285   0.07791   0.00000  Uiso   1.00
O142   O     0.90606   0.38339   0.18298   0.00000  Uiso   1.00
C143   C     0.59589   0.42427   0.31266   0.00000  Uiso   1.00
C144   C     0.71712   0.54212   0.19828   0.00000  Uiso   1.00
O145   O     0.91457   0.44593   0.96549   0.00000  Uiso   1.00
O146   O     0.80401   0.39482   0.07955   0.00000  Uiso   1.00
C147   C     0.76172   0.26425   0.48367   0.00000  Uiso   1.00
O148   O     0.87020   0.26444   0.37409   0.00000  Uiso   1.00
O149   O     0.93992   0.39034   0.49552   0.00000  Uiso   1.00
C150   C     0.65944   0.39849   0.48351   0.00000  Uiso   1.00
C151   C     0.67577   0.55957   0.59209   0.00000  Uiso   1.00
O152   O     0.93226   0.52424   0.28091   0.00000  Uiso   1.00
O153   O     0.75814   0.42277   0.28345   0.00000  Uiso   1.00
O154   O     0.85581   0.43212   0.39812   0.00000  Uiso   1.00
C155   C     0.79261   0.26891   0.81641   0.00000  Uiso   1.00
O156   O     0.92990   0.30387   0.71438   0.00000  Uiso   1.00
O157   O     0.96886   0.43004   0.82710   0.00000  Uiso   1.00
O158   O     0.68627   0.41611   0.82609   0.00000  Uiso   1.00
O159   O     0.76621   0.45504   0.95283   0.00000  Uiso   1.00
O160   O     0.67490   0.54420   0.91358   0.00000  Uiso   1.00
O161   O     0.95277   0.52549   0.60618   0.00000  Uiso   1.00
O162   O     0.78310   0.46902   0.60690   0.00000  Uiso   1.00
O163   O     0.86116   0.42075   0.71371   0.00000  Uiso   1.00
C164   C     0.60373   0.31850   0.16970   0.00000  Uiso   1.00
C165   C     0.79906   0.68898   0.05547   0.00000  Uiso   1.00
O166   O     0.90312   0.58505   0.04211   0.00000  Uiso   1.00
C167   C     0.97565   0.79095  -0.01052   0.00000  Uiso   1.00
C168   C     0.95233   0.74608   0.14995   0.00000  Uiso   1.00
C169   C     0.60293   0.68383   0.20531   0.00000  Uiso   1.00
C170   C     0.69166   0.91121   0.25847   0.00000  Uiso   1.00
O171   O     0.51814   0.74788   0.30369   0.00000  Uiso   1.00
O172   O     0.81563   0.59629   0.50361   0.00000  Uiso   1.00
O173   O     0.84576   0.59561   0.36257   0.00000  Uiso   1.00
O174   O     0.94186   0.75778   0.44222   0.00000  Uiso   1.00
O175   O     0.58614   0.78280   0.48503   0.00000  Uiso   1.00
C176   C     0.71778   0.80582   0.58432   0.00000  Uiso   1.00
O177   O     0.73173   0.95662   0.50399   0.00000  Uiso   1.00
C178   C     0.60944   0.89969   0.62095   0.00000  Uiso   1.00
C179   C     0.84774   0.80969   0.29398   0.00000  Uiso   1.00
O180   O     0.67914   0.76539   0.34287   0.00000  Uiso   1.00
O181   O     0.78152   0.71313   0.42057   0.00000  Uiso   1.00
O182   O     0.82334   0.90575   0.41811   0.00000  Uiso   1.00
O183   O     0.83360   0.59101   0.84675   0.00000  Uiso   1.00
O184   O     0.89799   0.60950   0.70926   0.00000  Uiso   1.00
C185   C     0.79446   0.69546   0.75008   0.00000  Uiso   1.00
C186   C     0.97948   0.79461   0.80056   0.00000  Uiso   1.00
C187   C     1.23552   1.02510   0.91808   0.00000  Uiso   1.00
O188   O     0.52474   0.73652   0.87023   0.00000  Uiso   1.00
C189   C     0.71044   0.83072   0.91917   0.00000  Uiso   1.00
C190   C     0.61857   0.72299   0.76099   0.00000  Uiso   1.00
C191   C     0.66514   0.93303   0.82387   0.00000  Uiso   1.00
H192   H    -0.05092   0.21391   0.15280   0.00000  Uiso   1.00
H193   H     0.04900   0.19731   0.13538   0.00000  Uiso   1.00
H194   H     0.05552   0.28729   0.21083   0.00000  Uiso   1.00
H195   H     0.81557   0.00570   0.16111   0.00000  Uiso   1.00
H196   H     0.85043  -0.07663   0.19416   0.00000  Uiso   1.00
H197   H     0.90584   0.00173   0.12140   0.00000  Uiso   1.00
H198   H     0.09522   0.11945   0.52294   0.00000  Uiso   1.00
H199   H     0.05088   0.10366   0.61048   0.00000  Uiso   1.00
H200   H     0.13543   0.22668   0.58631   0.00000  Uiso   1.00
H201   H     0.04193   0.10267   0.76942   0.00000  Uiso   1.00
H202   H     0.09301   0.20948   0.71214   0.00000  Uiso   1.00
H203   H     0.11926   0.23125   0.80534   0.00000  Uiso   1.00
H204   H     0.27514   0.31932   0.66648   0.00000  Uiso   1.00
H205   H     0.35155   0.28623   0.70363   0.00000  Uiso   1.00
H206   H     0.31291   0.34884   0.76675   0.00000  Uiso   1.00
H207   H     0.12895   0.98892   0.69159   0.00000  Uiso   1.00
H208   H     0.24186   1.04129   0.68849   0.00000  Uiso   1.00
H209   H     0.17701   1.07112   0.62125   0.00000  Uiso   1.00
H210   H    -0.02356   0.37036   0.05071   0.00000  Uiso   1.00
H211   H     0.05528   0.38383   0.12095   0.00000  Uiso   1.00
H212   H     0.02372   0.29638   0.03652   0.00000  Uiso   1.00
H213   H     0.17831   0.36156   0.97757   0.00000  Uiso   1.00
H214   H     0.26255   0.47719   1.03094   0.00000  Uiso   1.00
H215   H     0.23952   0.48109   0.93663   0.00000  Uiso   1.00
H216   H     0.23872   0.36893   0.51227   0.00000  Uiso   1.00
H217   H     0.19402   0.45078   0.49957   0.00000  Uiso   1.00
H218   H     0.27671   0.44619   0.43674   0.00000  Uiso   1.00
H219   H     0.10924   0.67082   0.87949   0.00000  Uiso   1.00
H220   H     0.02904   0.66548   0.94607   0.00000  Uiso   1.00
H221   H    -0.00532   0.63155   0.85631   0.00000  Uiso   1.00
H222   H     0.08320   0.34242   0.73569   0.00000  Uiso   1.00
H223   H     0.20523   0.42451   0.73139   0.00000  Uiso   1.00
H224   H     0.14818   0.34801   0.64933   0.00000  Uiso   1.00
H225   H     0.19013   0.66571   0.74780   0.00000  Uiso   1.00
H226   H     0.14009   0.54687   0.78687   0.00000  Uiso   1.00
H227   H     0.07280   0.58613   0.73195   0.00000  Uiso   1.00
H228   H     0.25828   0.61769   0.57473   0.00000  Uiso   1.00
H229   H     0.28552   0.52943   0.61903   0.00000  Uiso   1.00
H230   H     0.30758   0.63977   0.66685   0.00000  Uiso   1.00
H231   H     0.15834   0.74183   0.03749   0.00000  Uiso   1.00
H232   H     0.16044   0.80558   0.12585   0.00000  Uiso   1.00
H233   H     0.06176   0.68570   0.08726   0.00000  Uiso   1.00
H234   H     0.01826   0.73498   0.60026   0.00000  Uiso   1.00
H235   H     0.11731   0.85855   0.59852   0.00000  Uiso   1.00
H236   H     0.08884   0.75319   0.52905   0.00000  Uiso   1.00
H237   H     0.89561   0.80915   0.59996   0.00000  Uiso   1.00
H238   H     0.90022   0.89284   0.53313   0.00000  Uiso   1.00
H239   H     0.98579   0.94516   0.60302   0.00000  Uiso   1.00
H240   H     0.07433   0.72604   0.24261   0.00000  Uiso   1.00
H241   H     0.10785   0.85574   0.24873   0.00000  Uiso   1.00
H242   H     0.02277   0.76802   0.30676   0.00000  Uiso   1.00
H243   H     0.34469   1.29996   0.92305   0.00000  Uiso   1.00
H244   H     0.33550   1.24214   1.00554   0.00000  Uiso   1.00
H245   H     0.26375   1.29600   0.98382   0.00000  Uiso   1.00
H246   H     1.04565   1.03752   0.88068   0.00000  Uiso   1.00
H247   H     1.09146   1.15418   0.93392   0.00000  Uiso   1.00
H248   H     1.07333   1.04177   0.97807   0.00000  Uiso   1.00
H249   H     0.42666   0.79205   0.10765   0.00000  Uiso   1.00
H250   H     0.54319   0.83560   0.14645   0.00000  Uiso   1.00
H251   H     0.52795   0.88266   0.06717   0.00000  Uiso   1.00
H252   H     0.11064   0.05894   0.11532   0.00000  Uiso   1.00
H253   H     0.21042   0.09672   0.06543   0.00000  Uiso   1.00
H254   H     0.17446   0.18702   0.08470   0.00000  Uiso   1.00
H255   H     0.34479   0.07162   0.20674   0.00000  Uiso   1.00
H256   H     0.22794  -0.02029   0.18700   0.00000  Uiso   1.00
H257   H     0.26065   0.03611   0.27514   0.00000  Uiso   1.00
H258   H     0.41705   0.28276   0.22612   0.00000  Uiso   1.00
H259   H     0.35633   0.33660   0.19793   0.00000  Uiso   1.00
H260   H     0.39351   0.27311   0.13266   0.00000  Uiso   1.00
H261   H     0.52154   0.21197   0.03319   0.00000  Uiso   1.00
H262   H     0.42769   0.16678   0.08961   0.00000  Uiso   1.00
H263   H     0.40281   0.15582   0.00053   0.00000  Uiso   1.00
H264   H     0.29098  -0.10692   0.98085   0.00000  Uiso   1.00
H265   H     0.28405  -0.05449   1.06866   0.00000  Uiso   1.00
H266   H     0.31357  -0.15204   1.05446   0.00000  Uiso   1.00
H267   H     0.43394  -0.05535   0.91324   0.00000  Uiso   1.00
H268   H     0.52854  -0.02971   0.96511   0.00000  Uiso   1.00
H269   H     0.53135   0.07730   0.92432   0.00000  Uiso   1.00
H270   H     0.42443   0.35291   0.39785   0.00000  Uiso   1.00
H271   H     0.30437   0.29178   0.40248   0.00000  Uiso   1.00
H272   H     0.34934   0.25625   0.32755   0.00000  Uiso   1.00
H273   H     0.34473   0.29816   0.55117   0.00000  Uiso   1.00
H274   H     0.44160   0.29489   0.55221   0.00000  Uiso   1.00
H275   H     0.34085   0.18262   0.58456   0.00000  Uiso   1.00
H276   H     0.48456   0.19476   0.40235   0.00000  Uiso   1.00
H277   H     0.39059   0.07072   0.37367   0.00000  Uiso   1.00
H278   H     0.42930   0.08840   0.46337   0.00000  Uiso   1.00
H279   H     0.37932   0.02945   0.66799   0.00000  Uiso   1.00
H280   H     0.41546   0.16222   0.69464   0.00000  Uiso   1.00
H281   H     0.38963   0.07396   0.75889   0.00000  Uiso   1.00
H282   H     0.49328  -0.03737   0.70497   0.00000  Uiso   1.00
H283   H     0.53674   0.03935   0.79564   0.00000  Uiso   1.00
H284   H     0.61710   0.04408   0.72758   0.00000  Uiso   1.00
H285   H     0.57880   0.08850   0.57415   0.00000  Uiso   1.00
H286   H     0.62750   0.23046   0.59142   0.00000  Uiso   1.00
H287   H     0.50961   0.14133   0.56557   0.00000  Uiso   1.00
H288   H     0.18806   0.29926   0.19222   0.00000  Uiso   1.00
H289   H     0.27462   0.37567   0.12467   0.00000  Uiso   1.00
H290   H     0.17039   0.37445   0.13246   0.00000  Uiso   1.00
H291   H     0.40231   0.48381   0.26345   0.00000  Uiso   1.00
H292   H     0.30053   0.39965   0.31012   0.00000  Uiso   1.00
H293   H     0.35068   0.54082   0.32816   0.00000  Uiso   1.00
H294   H     0.32279   0.61836   0.12758   0.00000  Uiso   1.00
H295   H     0.39660   0.57593   0.13629   0.00000  Uiso   1.00
H296   H     0.40816   0.66906   0.20264   0.00000  Uiso   1.00
H297   H     0.48484   0.35390  -0.01551   0.00000  Uiso   1.00
H298   H     0.52674   0.43585   0.06627   0.00000  Uiso   1.00
H299   H     0.59657   0.39383   0.01964   0.00000  Uiso   1.00
H300   H     0.62937   0.64610   0.06555   0.00000  Uiso   1.00
H301   H     0.51608   0.58930   0.03724   0.00000  Uiso   1.00
H302   H     0.59524   0.68462  -0.01248   0.00000  Uiso   1.00
H303   H     0.46396   0.41622   0.85484   0.00000  Uiso   1.00
H304   H     0.50099   0.54671   0.84806   0.00000  Uiso   1.00
H305   H     0.42418   0.47052   0.92053   0.00000  Uiso   1.00
H306   H     0.55904   0.27591   0.92424   0.00000  Uiso   1.00
H307   H     0.48607   0.17525   0.85358   0.00000  Uiso   1.00
H308   H     0.45783   0.26453   0.87232   0.00000  Uiso   1.00
H309   H     0.58174   0.47843   0.75353   0.00000  Uiso   1.00
H310   H     0.47587   0.36779   0.74486   0.00000  Uiso   1.00
H311   H     0.55348   0.38113   0.68248   0.00000  Uiso   1.00
H312   H     0.38711   0.54816   0.54416   0.00000  Uiso   1.00
H313   H     0.43322   0.66787   0.59269   0.00000  Uiso   1.00
H314   H     0.49338   0.60316   0.58119   0.00000  Uiso   1.00
H315   H     0.52093   0.60425   0.35504   0.00000  Uiso   1.00
H316   H     0.45032   0.50030   0.41554   0.00000  Uiso   1.00
H317   H     0.56626   0.58190   0.43295   0.00000  Uiso   1.00
H318   H     0.44553   0.92963   0.59801   0.00000  Uiso   1.00
H319   H     0.45000   0.86093   0.51903   0.00000  Uiso   1.00
H320   H     0.41796   0.80694   0.60163   0.00000  Uiso   1.00
H321   H     0.32476   0.92373   0.45449   0.00000  Uiso   1.00
H322   H     0.35286   0.99304   0.54514   0.00000  Uiso   1.00
H323   H     0.23766   0.92168   0.51295   0.00000  Uiso   1.00
H324   H     0.17660   0.72634   0.63117   0.00000  Uiso   1.00
H325   H     0.24476   0.86448   0.65724   0.00000  Uiso   1.00
H326   H     0.28608   0.77313   0.67176   0.00000  Uiso   1.00
H327   H     0.46354   0.94077   0.38410   0.00000  Uiso   1.00
H328   H     0.55248   0.97066   0.33241   0.00000  Uiso   1.00
H329   H     0.54646   0.92501   0.42612   0.00000  Uiso   1.00
H330   H     0.40763   0.78315   0.97410   0.00000  Uiso   1.00
H331   H     0.35109   0.64399   0.97952   0.00000  Uiso   1.00
H332   H     0.30449   0.71503   0.93150   0.00000  Uiso   1.00
H333   H     0.38841   0.56526   0.76572   0.00000  Uiso   1.00
H334   H     0.29223   0.56961   0.78915   0.00000  Uiso   1.00
H335   H     0.33080   0.51177   0.84814   0.00000  Uiso   1.00
H336   H     0.34682   0.77492   0.79178   0.00000  Uiso   1.00
H337   H     0.45088   0.79145   0.73987   0.00000  Uiso   1.00
H338   H     0.45585   0.86727   0.82679   0.00000  Uiso   1.00
H339   H     0.62428   0.13656   0.35813   0.00000  Uiso   1.00
H340   H     0.55886   0.17058   0.29929   0.00000  Uiso   1.00
H341   H     0.67282   0.26222   0.33684   0.00000  Uiso   1.00
H342   H     0.90453   0.12052   0.98790   0.00000  Uiso   1.00
H343   H     0.91903   0.22788   0.93335   0.00000  Uiso   1.00
H344   H     0.83410   0.09498   0.90680   0.00000  Uiso   1.00
H345   H     0.71195   0.05342   0.11364   0.00000  Uiso   1.00
H346   H     0.76999   0.00607   0.05197   0.00000  Uiso   1.00
H347   H     0.66049  -0.02102   0.02514   0.00000  Uiso   1.00
H348   H     0.67070   0.12594   0.91624   0.00000  Uiso   1.00
H349   H     0.74166   0.25616   0.95504   0.00000  Uiso   1.00
H350   H     0.64834   0.16885   1.00377   0.00000  Uiso   1.00
H351   H     0.73166   0.10608   0.67103   0.00000  Uiso   1.00
H352   H     0.76909   0.11190   0.57950   0.00000  Uiso   1.00
H353   H     0.76069   0.21509   0.62441   0.00000  Uiso   1.00
H354   H     0.92180   0.05891   0.67388   0.00000  Uiso   1.00
H355   H     0.82746   0.03101   0.71441   0.00000  Uiso   1.00
H356   H     0.92768   0.12789   0.76587   0.00000  Uiso   1.00
H357   H     0.56127   0.34886   0.33699   0.00000  Uiso   1.00
H358   H     0.54877   0.43873   0.29021   0.00000  Uiso   1.00
H359   H     0.63846   0.49411   0.35172   0.00000  Uiso   1.00
H360   H     0.75320   0.53758   0.15025   0.00000  Uiso   1.00
H361   H     0.76723   0.61342   0.23512   0.00000  Uiso   1.00
H362   H     0.66195   0.54811   0.18181   0.00000  Uiso   1.00
H363   H     0.75389   0.18701   0.49291   0.00000  Uiso   1.00
H364   H     0.70477   0.25002   0.45061   0.00000  Uiso   1.00
H365   H     0.76601   0.30532   0.53652   0.00000  Uiso   1.00
H366   H     0.62185   0.32209   0.50728   0.00000  Uiso   1.00
H367   H     0.69679   0.39286   0.43761   0.00000  Uiso   1.00
H368   H     0.60865   0.41597   0.46333   0.00000  Uiso   1.00
H369   H     0.72193   0.63512   0.60312   0.00000  Uiso   1.00
H370   H     0.64421   0.52398   0.64144   0.00000  Uiso   1.00
H371   H     0.61593   0.54927   0.55314   0.00000  Uiso   1.00
H372   H     0.74021   0.22490   0.77909   0.00000  Uiso   1.00
H373   H     0.78186   0.32168   0.85501   0.00000  Uiso   1.00
H374   H     0.81314   0.22094   0.84671   0.00000  Uiso   1.00
H375   H     0.57180   0.23954   0.18693   0.00000  Uiso   1.00
H376   H     0.64399   0.32518   0.12160   0.00000  Uiso   1.00
H377   H     0.54727   0.32748   0.15245   0.00000  Uiso   1.00
H378   H     0.79911   0.72724   0.00763   0.00000  Uiso   1.00
H379   H     0.78874   0.72401   0.10716   0.00000  Uiso   1.00
H380   H     0.74643   0.60641   0.04150   0.00000  Uiso   1.00
H381   H     1.04817   0.81560  -0.00107   0.00000  Uiso   1.00
H382   H     0.97253   0.86065  -0.00432   0.00000  Uiso   1.00
H383   H     0.95491   0.75491  -0.06587   0.00000  Uiso   1.00
H384   H     1.02718   0.79093   0.14518   0.00000  Uiso   1.00
H385   H     0.93609   0.68503   0.18795   0.00000  Uiso   1.00
H386   H     0.93420   0.80243   0.17411   0.00000  Uiso   1.00
H387   H     0.56038   0.60288   0.21956   0.00000  Uiso   1.00
H388   H     0.66952   0.69647   0.19204   0.00000  Uiso   1.00
H389   H     0.56647   0.69249   0.16167   0.00000  Uiso   1.00
H390   H     0.66659   0.94811   0.29844   0.00000  Uiso   1.00
H391   H     0.67849   0.91793   0.20123   0.00000  Uiso   1.00
H392   H     0.76113   0.94336   0.27433   0.00000  Uiso   1.00
H393   H     0.74134   0.77354   0.53909   0.00000  Uiso   1.00
H394   H     0.66287   0.74044   0.61316   0.00000  Uiso   1.00
H395   H     0.76695   0.85860   0.62496   0.00000  Uiso   1.00
H396   H     0.54216   0.83794   0.63459   0.00000  Uiso   1.00
H397   H     0.60267   0.96722   0.60484   0.00000  Uiso   1.00
H398   H     0.66672   0.92993   0.66091   0.00000  Uiso   1.00
H399   H     0.80841   0.78019   0.24518   0.00000  Uiso   1.00
H400   H     0.87878   0.76241   0.30505   0.00000  Uiso   1.00
H401   H     0.89822   0.89171   0.29367   0.00000  Uiso   1.00
H402   H     0.72961   0.62110   0.73401   0.00000  Uiso   1.00
H403   H     0.82491   0.74409   0.70164   0.00000  Uiso   1.00
H404   H     0.78645   0.73552   0.79961   0.00000  Uiso   1.00
H405   H     0.95284   0.83693   0.83426   0.00000  Uiso   1.00
H406   H     1.00218   0.82917   0.74856   0.00000  Uiso   1.00
H407   H     1.03032   0.78666   0.82931   0.00000  Uiso   1.00
H408   H     1.30524   1.05298   0.90060   0.00000  Uiso   1.00
H409   H     1.18305   0.95853   0.88312   0.00000  Uiso   1.00
H410   H     1.22084   1.00842   0.97478   0.00000  Uiso   1.00
H411   H     0.77358   0.89524   0.90647   0.00000  Uiso   1.00
H412   H     0.72351   0.77426   0.93114   0.00000  Uiso   1.00
H413   H     0.68394   0.84828   0.96769   0.00000  Uiso   1.00
H414   H     0.68365   0.76066   0.73530   0.00000  Uiso   1.00
H415   H     0.56876   0.73044   0.72644   0.00000  Uiso   1.00
H416   H     0.59227   0.64151   0.76635   0.00000  Uiso   1.00
H417   H     0.61874   0.93238   0.78445   0.00000  Uiso   1.00
H418   H     0.73148   0.97190   0.80784   0.00000  Uiso   1.00
H419   H     0.66058   0.97072   0.87487   0.00000  Uiso   1.00
loop_
_geom_bond_atom_site_label_1
_geom_bond_atom_site_label_2
_geom_bond_distance
_geom_bond_site_symmetry_2
_ccdc_geom_bond_type
Si1    C52     1.733   .     S
Si1    O55     1.658   .     S
Si1    C53     1.891   1_455 S
Si1    O134    1.625   1_455 S
Si2    O56     1.586   .     S
Si2    O96     1.565   .     S
Si2    O79     1.600   1_545 S
Si2    O83     1.586   1_545 S
Si3    C54     1.857   .     S
Si3    O62     1.598   .     S
Si3    O133    1.597   1_455 S
Si3    O137    1.647   1_455 S
Si4    O55     1.556   .     S
Si4    O56     1.597   .     S
Si4    O63     1.622   .     S
Si4    O91     1.530   .     S
Si5    C57     1.847   .     S
Si5    C58     1.913   .     S
Si5    C59     1.868   1_545 S
Si5    O85     1.663   1_545 S
Si6    O65     1.599   .     S
Si6    O73     1.666   .     S
Si6    O142    1.619   1_455 S
Si6    O152    1.568   1_455 S
Si7    C60     1.758   .     S
Si7    O74     1.652   .     S
Si7    C61     1.872   1_554 S
Si7    O67     1.566   1_554 S
Si8    O62     1.606   .     S
Si8    O63     1.674   .     S
Si8    C64     1.809   .     S
Si8    O66     1.557   .     S
Si9    O69     1.599   .     S
Si9    O76     1.608   .     S
Si9    O149    1.614   1_455 S
Si9    O161    1.648   1_455 S
Si10   O65     1.610   .     S
Si10   O66     1.581   .     S
Si10   O77     1.630   .     S
Si10   O106    1.609   .     S
Si11   O67     1.610   .     S
Si11   C68     1.840   .     S
Si11   O145    1.621   1_455 S
Si11   O157    1.648   1_455 S
Si12   O69     1.635   .     S
Si12   C70     1.885   .     S
Si12   C71     1.803   .     S
Si12   C72     1.857   .     S
Si13   O73     1.639   .     S
Si13   O74     1.610   .     S
Si13   C75     1.799   .     S
Si13   O113    1.655   .     S
Si14   O76     1.601   .     S
Si14   O77     1.605   .     S
Si14   O82     1.612   .     S
Si14   O118    1.605   .     S
Si15   C78     1.900   .     S
Si15   O79     1.555   .     S
Si15   C80     1.841   1_455 S
Si15   O174    1.630   1_455 S
Si16   C81     1.865   .     S
Si16   O82     1.601   .     S
Si16   O83     1.607   .     S
Si16   O115    1.635   .     S
Si17   C84     1.901   .     S
Si17   O85     1.576   .     S
Si17   C86     1.907   1_455 S
Si17   C187    1.796   1_455 S
Si18   O92     1.627   .     S
Si18   O128    1.652   .     S
Si18   C87     1.840   1_545 S
Si18   O114    1.642   1_545 S
Si19   C88     1.886   .     S
Si19   C89     1.901   .     S
Si19   C90     1.897   .     S
Si19   O91     1.576   .     S
Si20   O92     1.579   .     S
Si20   C93     1.813   .     S
Si20   C94     1.807   1_554 S
Si20   C95     1.857   1_554 S
Si21   O96     1.570   .     S
Si21   C97     1.877   .     S
Si21   C98     1.854   .     S
Si21   C99     1.898   .     S
Si22   C100    1.897   .     S
Si22   C101    1.858   .     S
Si22   C102    1.875   .     S
Si22   O111    1.606   .     S
Si23   C103    1.832   .     S
Si23   C104    1.822   .     S
Si23   C105    1.904   .     S
Si23   O106    1.621   .     S
Si24   C107    1.810   .     S
Si24   C108    1.823   .     S
Si24   C109    1.906   1_554 S
Si24   O160    1.645   1_554 S
Si25   C110    1.871   .     S
Si25   O111    1.578   .     S
Si25   C112    1.856   .     S
Si25   O158    1.560   .     S
Si26   O113    1.663   .     S
Si26   O114    1.606   .     S
Si26   O115    1.622   .     S
Si26   O122    1.646   .     S
Si27   C116    1.844   .     S
Si27   C117    1.875   .     S
Si27   O123    1.604   .     S
Si27   O175    1.573   .     S
Si28   O118    1.678   .     S
Si28   C119    1.825   .     S
Si28   C120    1.808   .     S
Si28   C121    1.839   .     S
Si29   O122    1.637   .     S
Si29   O123    1.654   .     S
Si29   C124    1.835   .     S
Si29   O171    1.610   .     S
Si30   C125    1.870   .     S
Si30   C126    1.840   .     S
Si30   C127    1.948   .     S
Si30   O188    1.586   .     S
Si31   O128    1.647   .     S
Si31   C129    1.894   .     S
Si31   O135    1.664   .     S
Si31   O140    1.648   .     S
Si32   C131    1.707   .     S
Si32   O141    1.609   .     S
Si32   C130    1.839   1_554 S
Si32   C132    1.884   1_554 S
Si33   O133    1.561   .     S
Si33   O136    1.612   .     S
Si33   O177    1.585   1_545 S
Si33   O182    1.591   1_545 S
Si34   O134    1.572   .     S
Si34   O135    1.596   .     S
Si34   O136    1.629   .     S
Si34   O148    1.584   .     S
Si35   O137    1.600   .     S
Si35   C138    1.795   .     S
Si35   C139    1.815   .     S
Si35   O156    1.612   .     S
Si36   O140    1.693   .     S
Si36   O141    1.612   .     S
Si36   O142    1.631   .     S
Si36   O146    1.632   .     S
Si37   C143    1.854   .     S
Si37   C144    1.847   .     S
Si37   O153    1.617   .     S
Si37   C164    1.901   .     S
Si38   O146    1.661   .     S
Si38   O166    1.612   .     S
Si38   O145    1.619   1_554 S
Si38   O159    1.626   1_554 S
Si39   C147    1.765   .     S
Si39   O148    1.609   .     S
Si39   O149    1.613   .     S
Si39   O154    1.638   .     S
Si40   C150    1.847   .     S
Si40   C151    1.827   .     S
Si40   O162    1.599   .     S
Si40   O172    1.623   .     S
Si41   O152    1.597   .     S
Si41   O153    1.580   .     S
Si41   O154    1.634   .     S
Si41   O173    1.650   .     S
Si42   C155    1.865   .     S
Si42   O156    1.622   .     S
Si42   O157    1.592   .     S
Si42   O163    1.611   .     S
Si43   O158    1.566   .     S
Si43   O159    1.621   .     S
Si43   O160    1.645   .     S
Si43   O183    1.654   .     S
Si44   O161    1.596   .     S
Si44   O162    1.654   .     S
Si44   O163    1.613   .     S
Si44   O184    1.619   .     S
Si45   C165    1.832   .     S
Si45   O166    1.620   .     S
Si45   C167    1.879   .     S
Si45   C168    1.850   .     S
Si46   C169    1.866   .     S
Si46   C170    1.828   .     S
Si46   O171    1.621   .     S
Si46   O180    1.610   .     S
Si47   O172    1.612   .     S
Si47   O173    1.604   .     S
Si47   O174    1.568   .     S
Si47   O181    1.640   .     S
Si48   O175    1.565   .     S
Si48   C176    1.757   .     S
Si48   O177    1.591   .     S
Si48   C178    1.910   .     S
Si49   C179    1.833   .     S
Si49   O180    1.594   .     S
Si49   O181    1.618   .     S
Si49   O182    1.618   .     S
Si50   O183    1.620   .     S
Si50   O184    1.591   .     S
Si50   C185    1.867   .     S
Si50   C186    1.883   .     S
Si51   O188    1.571   .     S
Si51   C189    1.860   .     S
Si51   C190    1.827   .     S
Si51   C191    1.873   .     S
C52    H192    1.142   .     S
C52    H193    1.129   .     S
C52    H194    1.130   .     S
C53    H195    1.135   .     S
C53    H196    1.132   .     S
C53    H197    1.076   .     S
C53    Si1     1.891   1_655 S
C54    H198    1.081   .     S
C54    H199    1.103   .     S
C54    H200    1.078   .     S
C57    H201    1.092   .     S
C57    H202    1.099   .     S
C57    H203    1.088   .     S
C58    H204    1.147   .     S
C58    H205    1.073   .     S
C58    H206    1.109   .     S
C59    H207    1.075   .     S
C59    H208    1.099   .     S
C59    H209    1.110   .     S
C59    Si5     1.868   1_565 S
C60    H210    1.091   .     S
C60    H211    1.133   .     S
C60    H212    1.091   .     S
C61    H213    1.104   .     S
C61    H214    1.055   .     S
C61    H215    1.116   .     S
C61    Si7     1.872   1_556 S
C64    H216    1.139   .     S
C64    H217    1.173   .     S
C64    H218    1.062   .     S
O67    Si7     1.566   1_556 S
C68    H219    1.103   .     S
C68    H220    1.095   .     S
C68    H221    1.083   .     S
C70    H222    1.160   .     S
C70    H223    1.108   .     S
C70    H224    1.144   .     S
C71    H225    1.132   .     S
C71    H226    1.153   .     S
C71    H227    1.067   .     S
C72    H228    1.122   .     S
C72    H229    1.100   .     S
C72    H230    1.098   .     S
C75    H231    1.109   .     S
C75    H232    1.132   .     S
C75    H233    1.069   .     S
C78    H234    1.111   .     S
C78    H235    1.130   .     S
C78    H236    1.075   .     S
O79    Si2     1.600   1_565 S
C80    H237    1.118   .     S
C80    H238    1.096   .     S
C80    H239    1.105   .     S
C80    Si15    1.841   1_655 S
C81    H240    1.060   .     S
C81    H241    1.094   .     S
C81    H242    1.073   .     S
O83    Si2     1.586   1_565 S
C84    H243    1.114   .     S
C84    H244    1.124   .     S
C84    H245    1.113   .     S
O85    Si5     1.663   1_565 S
C86    H246    1.079   .     S
C86    H247    1.112   .     S
C86    H248    1.113   .     S
C86    Si17    1.907   1_655 S
C87    H249    1.126   .     S
C87    H250    1.103   .     S
C87    H251    1.057   .     S
C87    Si18    1.840   1_565 S
C88    H252    1.070   .     S
C88    H253    1.103   .     S
C88    H254    1.152   .     S
C89    H255    1.121   .     S
C89    H256    1.100   .     S
C89    H257    1.100   .     S
C90    H258    1.143   .     S
C90    H259    1.054   .     S
C90    H260    1.065   .     S
C93    H261    1.081   .     S
C93    H262    1.122   .     S
C93    H263    1.076   .     S
C94    H264    1.080   .     S
C94    H265    1.101   .     S
C94    H266    1.076   .     S
C94    Si20    1.807   1_556 S
C95    H267    1.131   .     S
C95    H268    1.138   .     S
C95    H269    1.102   .     S
C95    Si20    1.857   1_556 S
C97    H270    1.149   .     S
C97    H271    1.062   .     S
C97    H272    1.129   .     S
C98    H273    1.091   .     S
C98    H274    1.106   .     S
C98    H275    1.147   .     S
C99    H276    1.085   .     S
C99    H277    1.135   .     S
C99    H278    1.104   .     S
C100   H279    1.139   .     S
C100   H280    1.008   .     S
C100   H281    1.069   .     S
C101   H282    1.131   .     S
C101   H283    1.136   .     S
C101   H284    1.134   .     S
C102   H285    1.134   .     S
C102   H286    1.104   .     S
C102   H287    1.106   .     S
C103   H288    1.177   .     S
C103   H289    1.057   .     S
C103   H290    1.064   .     S
C104   H291    1.156   .     S
C104   H292    1.075   .     S
C104   H293    1.080   .     S
C105   H294    1.068   .     S
C105   H295    1.089   .     S
C105   H296    1.112   .     S
C107   H297    1.079   .     S
C107   H298    1.113   .     S
C107   H299    1.141   .     S
C108   H300    1.087   .     S
C108   H301    1.131   .     S
C108   H302    1.062   .     S
C109   H303    1.078   .     S
C109   H304    1.092   .     S
C109   H305    1.139   .     S
C109   Si24    1.906   1_556 S
C110   H306    1.128   .     S
C110   H307    1.132   .     S
C110   H308    1.095   .     S
C112   H309    1.115   .     S
C112   H310    1.136   .     S
C112   H311    1.058   .     S
O114   Si18    1.642   1_565 S
C116   H312    1.052   .     S
C116   H313    1.052   .     S
C116   H314    1.148   .     S
C117   H315    1.115   .     S
C117   H316    1.137   .     S
C117   H317    1.073   .     S
C119   H318    1.085   .     S
C119   H319    1.053   .     S
C119   H320    1.060   .     S
C120   H321    1.084   .     S
C120   H322    1.076   .     S
C120   H323    1.119   .     S
C121   H324    1.144   .     S
C121   H325    1.125   .     S
C121   H326    1.108   .     S
C124   H327    1.086   .     S
C124   H328    1.127   .     S
C124   H329    1.129   .     S
C125   H330    1.116   .     S
C125   H331    1.119   .     S
C125   H332    1.104   .     S
C126   H333    1.122   .     S
C126   H334    1.120   .     S
C126   H335    1.038   .     S
C127   H336    1.136   .     S
C127   H337    1.165   .     S
C127   H338    1.059   .     S
C129   H339    1.082   .     S
C129   H340    1.175   .     S
C129   H341    1.052   .     S
C130   H342    1.127   .     S
C130   H343    1.163   .     S
C130   H344    1.081   .     S
C130   Si32    1.839   1_556 S
C131   H345    1.141   .     S
C131   H346    1.097   .     S
C131   H347    1.136   .     S
C132   H348    1.070   .     S
C132   H349    1.118   .     S
C132   H350    1.130   .     S
C132   Si32    1.884   1_556 S
O133   Si3     1.597   1_655 S
O134   Si1     1.625   1_655 S
O137   Si3     1.647   1_655 S
C138   H351    1.071   .     S
C138   H352    1.105   .     S
C138   H353    1.136   .     S
C139   H354    1.119   .     S
C139   H355    1.095   .     S
C139   H356    1.151   .     S
O142   Si6     1.619   1_655 S
C143   H357    1.110   .     S
C143   H358    1.041   .     S
C143   H359    1.133   .     S
C144   H360    1.100   .     S
C144   H361    1.151   .     S
C144   H362    1.053   .     S
O145   Si11    1.621   1_655 S
O145   Si38    1.619   1_556 S
C147   H363    1.136   .     S
C147   H364    1.074   .     S
C147   H365    1.102   .     S
O149   Si9     1.614   1_655 S
C150   H366    1.118   .     S
C150   H367    1.088   .     S
C150   H368    1.113   .     S
C151   H369    1.012   .     S
C151   H370    1.082   .     S
C151   H371    1.197   .     S
O152   Si6     1.568   1_655 S
C155   H372    1.029   .     S
C155   H373    1.125   .     S
C155   H374    1.136   .     S
O157   Si11    1.648   1_655 S
O159   Si38    1.626   1_556 S
O160   Si24    1.645   1_556 S
O161   Si9     1.648   1_655 S
C164   H375    1.101   .     S
C164   H376    1.102   .     S
C164   H377    1.105   .     S
C165   H378    1.086   .     S
C165   H379    1.119   .     S
C165   H380    1.119   .     S
C167   H381    1.120   .     S
C167   H382    1.089   .     S
C167   H383    1.092   .     S
C168   H384    1.117   .     S
C168   H385    1.115   .     S
C168   H386    1.123   .     S
C169   H387    1.110   .     S
C169   H388    1.097   .     S
C169   H389    1.078   .     S
C170   H390    1.115   .     S
C170   H391    1.100   .     S
C170   H392    1.071   .     S
O174   Si15    1.630   1_655 S
C176   H393    1.120   .     S
C176   H394    1.125   .     S
C176   H395    1.071   .     S
O177   Si33    1.585   1_565 S
C178   H396    1.097   .     S
C178   H397    1.150   .     S
C178   H398    1.106   .     S
C179   H399    1.052   .     S
C179   H400    1.126   .     S
C179   H401    1.094   .     S
O182   Si33    1.591   1_565 S
C185   H402    1.129   .     S
C185   H403    1.140   .     S
C185   H404    1.112   .     S
C186   H405    1.126   .     S
C186   H406    1.093   .     S
C186   H407    1.091   .     S
C187   H408    1.108   .     S
C187   H409    1.111   .     S
C187   H410    1.088   .     S
C187   Si17    1.796   1_655 S
C189   H411    1.065   .     S
C189   H412    1.031   .     S
C189   H413    1.083   .     S
C190   H414    1.090   .     S
C190   H415    1.129   .     S
C190   H416    1.090   .     S
C191   H417    1.079   .     S
C191   H418    1.038   .     S
C191   H419    1.092   .     S
