data_333-15-11-10-15-30-10
_audit_creation_date              2025-03-07
_audit_creation_method            'Materials Studio'
_symmetry_space_group_name_H-M    'P1'
_symmetry_Int_Tables_number       1
_symmetry_cell_setting            triclinic
loop_
_symmetry_equiv_pos_as_xyz
  x,y,z
_cell_length_a                    15.9813
_cell_length_b                    16.5073
_cell_length_c                    17.6718
_cell_angle_alpha                 91.7340
_cell_angle_beta                  91.2031
_cell_angle_gamma                 108.2805
loop_
_atom_site_label
_atom_site_type_symbol
_atom_site_fract_x
_atom_site_fract_y
_atom_site_fract_z
_atom_site_U_iso_or_equiv
_atom_site_adp_type
_atom_site_occupancy
Si1    Si    0.10985   0.02441   0.02316   0.00000  Uiso   1.00
Si2    Si    0.09206   0.25680   0.23951   0.00000  Uiso   1.00
Si3    Si    0.15914   0.21340   0.01465   0.00000  Uiso   1.00
Si4    Si    0.23644   0.08536   0.42833   0.00000  Uiso   1.00
Si5    Si    0.07528   0.25985   0.51451   0.00000  Uiso   1.00
Si6    Si    0.24445   0.25359   0.35290   0.00000  Uiso   1.00
Si7    Si    0.11922   0.07717   0.70148   0.00000  Uiso   1.00
Si8    Si    0.21338   0.24641   0.63421   0.00000  Uiso   1.00
Si9    Si    0.20910   0.36696   0.12937   0.00000  Uiso   1.00
Si10   Si    0.15932   0.48289   0.00768   0.00000  Uiso   1.00
Si11   Si    0.19208   0.40083   0.42136   0.00000  Uiso   1.00
Si12   Si    0.01054   0.55404   0.58865   0.00000  Uiso   1.00
Si13   Si    0.19744   0.52635   0.29678   0.00000  Uiso   1.00
Si14   Si    0.20276   0.38758   0.74247   0.00000  Uiso   1.00
Si15   Si   -0.04250   0.41780   0.94588   0.00000  Uiso   1.00
Si16   Si    0.18572   0.53869   0.65575   0.00000  Uiso   1.00
Si17   Si    0.16086   0.66881   0.01920   0.00000  Uiso   1.00
Si18   Si    0.10384   0.90445   0.41048   0.00000  Uiso   1.00
Si19   Si    0.32236   1.03227   0.28474   0.00000  Uiso   1.00
Si20   Si    0.35983   0.18822   0.56184   0.00000  Uiso   1.00
Si21   Si    0.59533   0.20781   0.42064   0.00000  Uiso   1.00
Si22   Si    0.44529  -0.02384   0.78108   0.00000  Uiso   1.00
Si23   Si    0.49217   0.13795   0.67645   0.00000  Uiso   1.00
Si24   Si    0.45592   0.32166   0.09323   0.00000  Uiso   1.00
Si25   Si    0.35000   0.48242   0.23579   0.00000  Uiso   1.00
Si26   Si    0.45342   0.45184  -0.01652   0.00000  Uiso   1.00
Si27   Si    0.49612   0.32755   0.47055   0.00000  Uiso   1.00
Si28   Si    0.31651   0.51727   0.53988   0.00000  Uiso   1.00
Si29   Si    0.47711   0.47151   0.36767   0.00000  Uiso   1.00
Si30   Si    0.50214   0.27925   0.80246   0.00000  Uiso   1.00
Si31   Si    0.29766   0.48533   0.88484   0.00000  Uiso   1.00
Si32   Si    0.45655   0.58592   0.10989   0.00000  Uiso   1.00
Si33   Si    0.47731   0.63212   0.47437   0.00000  Uiso   1.00
Si34   Si    0.31254   0.82521   0.59877   0.00000  Uiso   1.00
Si35   Si    0.51910   0.77594   0.35352   0.00000  Uiso   1.00
Si36   Si    0.42532   0.65892   0.84052   0.00000  Uiso   1.00
Si37   Si    0.43537   0.79101   0.72193   0.00000  Uiso   1.00
Si38   Si    0.93861   0.12880   0.41219   0.00000  Uiso   1.00
Si39   Si    0.66750   0.10863   0.64395   0.00000  Uiso   1.00
Si40   Si    0.93030   0.27159   0.31209   0.00000  Uiso   1.00
Si41   Si    0.76260   0.09817   1.01168   0.00000  Uiso   1.00
Si42   Si    0.57158   0.42971   0.22276   0.00000  Uiso   1.00
Si43   Si    0.78103   0.42906   0.02373   0.00000  Uiso   1.00
Si44   Si    0.63521   0.45337   0.57487   0.00000  Uiso   1.00
Si45   Si    0.84597   0.23047   0.89557   0.00000  Uiso   1.00
Si46   Si    0.62100   0.43116   0.90226   0.00000  Uiso   1.00
Si47   Si    0.75704   0.53016   0.17200   0.00000  Uiso   1.00
Si48   Si    0.56643   0.75573   0.60609   0.00000  Uiso   1.00
Si49   Si    0.75093   0.59267   0.83879   0.00000  Uiso   1.00
Si50   Si    0.56885   0.79192   0.93065   0.00000  Uiso   1.00
Si51   Si    0.76303   0.79609   0.61003   0.00000  Uiso   1.00
C52    C     0.19580  -0.03050   0.02317   0.00000  Uiso   1.00
C53    C     0.02897   0.96039   0.08741   0.00000  Uiso   1.00
C54    C     0.05894   1.00814  -0.07214   0.00000  Uiso   1.00
C55    C     1.02871   0.15328   0.18789   0.00000  Uiso   1.00
O56    O     0.14624   0.11974   0.04615   0.00000  Uiso   1.00
C57    C     0.05461   0.22923   0.98797   0.00000  Uiso   1.00
C58    C     0.22562   0.22317   0.93223   0.00000  Uiso   1.00
C59    C     0.99455   0.27851   0.57698   0.00000  Uiso   1.00
O60    O     0.17708   0.24494   0.28400   0.00000  Uiso   1.00
O61    O     0.21440   0.16824   0.40027   0.00000  Uiso   1.00
C62    C     0.34941   0.25016   0.31133   0.00000  Uiso   1.00
C63    C     0.20110   0.04339   0.75599   0.00000  Uiso   1.00
C64    C     0.00969   1.03831   0.74789   0.00000  Uiso   1.00
C65    C     0.10221   1.01718   0.61013   0.00000  Uiso   1.00
O66    O     0.15978   0.24654   0.55563   0.00000  Uiso   1.00
O67    O     0.15733   0.17623   0.68467   0.00000  Uiso   1.00
O68    O     0.12547   0.32983   0.17735   0.00000  Uiso   1.00
O69    O     0.21258   0.29105   0.07494   0.00000  Uiso   1.00
O70    O     0.19572   0.44318   0.07918   0.00000  Uiso   1.00
O71    O     0.10481   0.33808   0.46015   0.00000  Uiso   1.00
O72    O     0.25421   0.34204   0.39978   0.00000  Uiso   1.00
C73    C     0.01984   0.66853   0.61936   0.00000  Uiso   1.00
C74    C     0.91844   0.47721   0.63527   0.00000  Uiso   1.00
C75    C     0.98759   0.54638   0.48484   0.00000  Uiso   1.00
C76    C     0.10037   0.51464   0.23403   0.00000  Uiso   1.00
O77    O     0.16738   0.44810   0.35183   0.00000  Uiso   1.00
C78    C     0.21674   0.62870   0.34791   0.00000  Uiso   1.00
C79    C     0.10121   0.31473   0.78218   0.00000  Uiso   1.00
O80    O     0.24116   0.33594   0.68301   0.00000  Uiso   1.00
O81    O     0.05237   0.44147   0.99443   0.00000  Uiso   1.00
C82    C    -0.02237   0.48217   0.86326   0.00000  Uiso   1.00
O83    O     0.10556   0.53777   0.60229   0.00000  Uiso   1.00
O84    O     0.16659   0.45362   0.69732   0.00000  Uiso   1.00
C85    C     0.19325   0.61969   0.73192   0.00000  Uiso   1.00
C86    C     0.04752   0.64565   0.04976   0.00000  Uiso   1.00
O87    O     0.18684   0.58519   0.02460   0.00000  Uiso   1.00
C88    C     0.17507   0.71442  -0.07615   0.00000  Uiso   1.00
C89    C     0.23295   0.74845   0.09240   0.00000  Uiso   1.00
C90    C     0.18066   0.83936   0.42030   0.00000  Uiso   1.00
O91    O     0.15001   1.00249   0.43476   0.00000  Uiso   1.00
C92    C     1.07119   0.89625   0.30983   0.00000  Uiso   1.00
C93    C     0.23781   1.04512   0.22015   0.00000  Uiso   1.00
C94    C     0.31796   0.91657   0.27257   0.00000  Uiso   1.00
O95    O     0.29561   1.05658   0.36807   0.00000  Uiso   1.00
C96    C     0.43915   1.08704   0.25754   0.00000  Uiso   1.00
O97    O     0.29323   0.11456   0.50837   0.00000  Uiso   1.00
O98    O     0.30253   0.22497   0.62097   0.00000  Uiso   1.00
C99    C     0.65060   0.18699   0.33145   0.00000  Uiso   1.00
C100   C     0.51306   0.10837   0.44688   0.00000  Uiso   1.00
C101   C     0.69003   0.24862   0.48756   0.00000  Uiso   1.00
C102   C     0.33210   0.93586   0.82011   0.00000  Uiso   1.00
O103   O     0.42812   0.15434   0.60882   0.00000  Uiso   1.00
O104   O     0.44917   0.04300   0.71415   0.00000  Uiso   1.00
C105   C     0.36725   0.22018   0.10804   0.00000  Uiso   1.00
C106   C     0.54545   0.28904   0.05585   0.00000  Uiso   1.00
O107   O     0.29194   0.40037   0.18500   0.00000  Uiso   1.00
O108   O     0.28111   0.53093   0.25079   0.00000  Uiso   1.00
O109   O     0.42822   0.36877   0.02798   0.00000  Uiso   1.00
O110   O     0.40889   0.26073   0.50546   0.00000  Uiso   1.00
O111   O     0.54502   0.27586   0.42056   0.00000  Uiso   1.00
O112   O     0.24071   0.47068   0.48273   0.00000  Uiso   1.00
C113   C     0.37763   0.44499   0.57235   0.00000  Uiso   1.00
O114   O     0.27466   0.55127   0.60722   0.00000  Uiso   1.00
O115   O     0.38918   0.46540   0.31651   0.00000  Uiso   1.00
O116   O     0.46844   0.38863   0.41404   0.00000  Uiso   1.00
C117   C     0.43609   0.21093   0.87475   0.00000  Uiso   1.00
O118   O     0.52125   0.21307   0.74414   0.00000  Uiso   1.00
C119   C     0.43393   0.33890   0.75659   0.00000  Uiso   1.00
O120   O     0.27751   0.43004   0.80448   0.00000  Uiso   1.00
O121   O     0.36634   0.45096   0.93081   0.00000  Uiso   1.00
O122   O     0.20836   0.46957   0.93076   0.00000  Uiso   1.00
O123   O     0.42469   0.52731   0.17809   0.00000  Uiso   1.00
O124   O     0.47791   0.53494   0.03843   0.00000  Uiso   1.00
C125   C     0.38040   0.64615   0.08291   0.00000  Uiso   1.00
C126   C     0.56511   0.66233   0.13888   0.00000  Uiso   1.00
O127   O     0.38185   0.59312   0.50031   0.00000  Uiso   1.00
O128   O     0.50108   0.55719   0.42446   0.00000  Uiso   1.00
C129   C     0.27765   0.74207   0.52538   0.00000  Uiso   1.00
C130   C     0.38893   0.92421   0.56771   0.00000  Uiso   1.00
C131   C     0.21452   0.85280   0.63143   0.00000  Uiso   1.00
C132   C     0.44702   0.75116   0.27096   0.00000  Uiso   1.00
O133   O     0.47442   0.71260   0.42164   0.00000  Uiso   1.00
C134   C     0.53066   0.88910   0.37243   0.00000  Uiso   1.00
C135   C     0.63652   0.77690   0.33803   0.00000  Uiso   1.00
O136   O     0.34023   0.58912   0.86954   0.00000  Uiso   1.00
C137   C     0.46709   0.59109   0.77283   0.00000  Uiso   1.00
O138   O     0.35373   0.78173   0.66481   0.00000  Uiso   1.00
O139   O     0.40179   0.73039   0.79371   0.00000  Uiso   1.00
O140   O     0.47138   0.89455   0.74569   0.00000  Uiso   1.00
O141   O     1.02596   0.17628   0.46370   0.00000  Uiso   1.00
C142   C     0.95290   1.04272   0.34777   0.00000  Uiso   1.00
C143   C     0.66052   0.04845   0.55248   0.00000  Uiso   1.00
C144   C     0.67267   0.03529   0.71909   0.00000  Uiso   1.00
C145   C     0.77180   0.20013   0.65813   0.00000  Uiso   1.00
O146   O     0.58175   0.13897   0.64124   0.00000  Uiso   1.00
O147   O     1.03168   0.28792   0.29436   0.00000  Uiso   1.00
C148   C     0.86184   0.24589   0.22541   0.00000  Uiso   1.00
O149   O     0.90175   0.19634   0.37102   0.00000  Uiso   1.00
C150   C     0.91161   0.37091   0.35107   0.00000  Uiso   1.00
C151   C     0.50933   0.02878   0.86254   0.00000  Uiso   1.00
C152   C     0.66405   0.10435   1.06526   0.00000  Uiso   1.00
C153   C     0.74040   0.00947   0.93777   0.00000  Uiso   1.00
C154   C     0.84586   0.09045   1.08156   0.00000  Uiso   1.00
O155   O     0.48484   0.38087   0.17006   0.00000  Uiso   1.00
C156   C     0.60792   0.34555   0.26088   0.00000  Uiso   1.00
O157   O     0.54809   0.48084   0.29791   0.00000  Uiso   1.00
O158   O     0.88052   0.44781   0.98412   0.00000  Uiso   1.00
C159   C     0.76345   0.32538   0.06959   0.00000  Uiso   1.00
O160   O     0.55107   0.38356   0.54164   0.00000  Uiso   1.00
C161   C     0.68630   0.39905   0.63656   0.00000  Uiso   1.00
C162   C     0.71427   0.50385   0.50451   0.00000  Uiso   1.00
C163   C     0.60171   0.53150   0.64067   0.00000  Uiso   1.00
O164   O     0.80493   0.18683   0.97103   0.00000  Uiso   1.00
C165   C     0.88698   0.15747   0.83397   0.00000  Uiso   1.00
C166   C     0.75541   0.26580   0.84567   0.00000  Uiso   1.00
O167   O     0.92449   0.31720   0.92011   0.00000  Uiso   1.00
O168   O     0.58528   0.34374   0.84809   0.00000  Uiso   1.00
O169   O     0.68856   0.42252   0.96866   0.00000  Uiso   1.00
O170   O     0.53454   0.45396   0.92788   0.00000  Uiso   1.00
O171   O     0.64911   0.49133   0.17558   0.00000  Uiso   1.00
O172   O     0.78756   0.49952   0.09217   0.00000  Uiso   1.00
C173   C     0.79329   0.65010   0.18350   0.00000  Uiso   1.00
C174   C     0.81588   0.48803   0.25045   0.00000  Uiso   1.00
O175   O     0.53749   0.67235   0.55010   0.00000  Uiso   1.00
C176   C     0.56501   0.84760   0.55339   0.00000  Uiso   1.00
C177   C     0.85323   1.08190   0.48041   0.00000  Uiso   1.00
O178   O     0.50453   0.75501   0.67610   0.00000  Uiso   1.00
O179   O     0.67541   0.50588   0.85072   0.00000  Uiso   1.00
C180   C     0.82667   0.57937   0.76691   0.00000  Uiso   1.00
C181   C     0.81696   0.63343   0.93195   0.00000  Uiso   1.00
O182   O     0.49477   0.70501   0.90612   0.00000  Uiso   1.00
C183   C     0.65985   0.77008   0.99100   0.00000  Uiso   1.00
C184   C     0.62256   0.84185   0.84224   0.00000  Uiso   1.00
C185   C     0.50885   0.85480   0.98311   0.00000  Uiso   1.00
C186   C     1.00414   0.85185   0.46453   0.00000  Uiso   1.00
C187   C     0.77573   0.70779   0.54983   0.00000  Uiso   1.00
O188   O     0.66316   0.77282   0.63926   0.00000  Uiso   1.00
C189   C     0.70154   0.67805   0.81487   0.00000  Uiso   1.00
C190   C     0.84810   0.80257   0.68879   0.00000  Uiso   1.00
C191   C     0.80224   0.90818   0.57482   0.00000  Uiso   1.00
H192   H     0.25453   0.01940   0.00692   0.00000  Uiso   1.00
H193   H     0.18170  -0.08611  -0.01831   0.00000  Uiso   1.00
H194   H     0.21272  -0.05530   0.07774   0.00000  Uiso   1.00
H195   H    -0.00773   0.89599   0.06068   0.00000  Uiso   1.00
H196   H    -0.02418   0.98921   0.10200   0.00000  Uiso   1.00
H197   H     0.05511   0.94791   0.14038   0.00000  Uiso   1.00
H198   H    -0.01049   0.99290  -0.07169   0.00000  Uiso   1.00
H199   H     0.06418   0.95290  -0.10072   0.00000  Uiso   1.00
H200   H     0.09579   1.06186  -0.11093   0.00000  Uiso   1.00
H201   H     0.96225   0.13145   0.20993   0.00000  Uiso   1.00
H202   H     1.06037   0.10384   0.19930   0.00000  Uiso   1.00
H203   H     1.02818   0.16685   0.12671   0.00000  Uiso   1.00
H204   H     0.06056   0.25451   0.92746   0.00000  Uiso   1.00
H205   H     0.04310   0.27868   1.03003   0.00000  Uiso   1.00
H206   H     0.00363   0.16875   0.99857   0.00000  Uiso   1.00
H207   H     0.26442   0.18206   0.94571   0.00000  Uiso   1.00
H208   H     0.26378   0.29248   0.92327   0.00000  Uiso   1.00
H209   H     0.18441   0.19861   0.87830   0.00000  Uiso   1.00
H210   H     1.02225   0.33760   0.61538   0.00000  Uiso   1.00
H211   H     0.98262   0.22991   0.61748   0.00000  Uiso   1.00
H212   H     0.93401   0.27880   0.54276   0.00000  Uiso   1.00
H213   H     0.38953   0.31269   0.29411   0.00000  Uiso   1.00
H214   H     0.34176   0.20323   0.26459   0.00000  Uiso   1.00
H215   H     0.39186   0.22892   0.35394   0.00000  Uiso   1.00
H216   H     0.16337  -0.02240   0.76374   0.00000  Uiso   1.00
H217   H     0.21864   0.07642   0.81285   0.00000  Uiso   1.00
H218   H     0.26004   0.05581   0.72195   0.00000  Uiso   1.00
H219   H    -0.00165   0.97443   0.76599   0.00000  Uiso   1.00
H220   H    -0.04900   1.03621   0.71200   0.00000  Uiso   1.00
H221   H     0.00811   1.07709   0.79567   0.00000  Uiso   1.00
H222   H     0.07715   0.94715   0.62229   0.00000  Uiso   1.00
H223   H     0.16068   1.02941   0.58312   0.00000  Uiso   1.00
H224   H     0.05456   1.03393   0.57109   0.00000  Uiso   1.00
H225   H    -0.04416   0.67786   0.62931   0.00000  Uiso   1.00
H226   H     0.04274   0.71159   0.56960   0.00000  Uiso   1.00
H227   H     0.05874   0.69367   0.67383   0.00000  Uiso   1.00
H228   H     0.85782   0.49524   0.63627   0.00000  Uiso   1.00
H229   H     0.94205   0.47374   0.69793   0.00000  Uiso   1.00
H230   H     0.90616   0.41291   0.60652   0.00000  Uiso   1.00
H231   H     1.02148   0.50383   0.45924   0.00000  Uiso   1.00
H232   H     1.01172   0.61121   0.46187   0.00000  Uiso   1.00
H233   H     0.91393   0.51911   0.47659   0.00000  Uiso   1.00
H234   H     0.06140   0.55500   0.24988   0.00000  Uiso   1.00
H235   H     0.05586   0.44719   0.22577   0.00000  Uiso   1.00
H236   H     0.12801   0.53410   0.17657   0.00000  Uiso   1.00
H237   H     0.16027   0.63254   0.38304   0.00000  Uiso   1.00
H238   H     0.22810   0.67557   0.30299   0.00000  Uiso   1.00
H239   H     0.27803   0.65376   0.37971   0.00000  Uiso   1.00
H240   H     0.07571   0.35348   0.82760   0.00000  Uiso   1.00
H241   H     0.10863   0.25937   0.80901   0.00000  Uiso   1.00
H242   H     0.05056   0.29648   0.73817   0.00000  Uiso   1.00
H243   H    -0.07638   0.44517   0.82309   0.00000  Uiso   1.00
H244   H     0.04046   0.48546   0.83683   0.00000  Uiso   1.00
H245   H    -0.03161   0.54360   0.87005   0.00000  Uiso   1.00
H246   H     0.13150   0.61671   0.76399   0.00000  Uiso   1.00
H247   H     0.21972   0.68335   0.71108   0.00000  Uiso   1.00
H248   H     0.23911   0.60625   0.77201   0.00000  Uiso   1.00
H249   H     0.05422   0.63201   0.10826   0.00000  Uiso   1.00
H250   H     0.00613   0.59276   0.01138   0.00000  Uiso   1.00
H251   H     0.01896   0.69861   0.04623   0.00000  Uiso   1.00
H252   H     0.12643   0.68053  -0.12160   0.00000  Uiso   1.00
H253   H     0.24112   0.71913  -0.09810   0.00000  Uiso   1.00
H254   H     0.17140   0.78047  -0.07271   0.00000  Uiso   1.00
H255   H     0.29614   0.78021   0.06989   0.00000  Uiso   1.00
H256   H     0.23582   0.70726   0.13827   0.00000  Uiso   1.00
H257   H     0.20328   0.79860   0.11552   0.00000  Uiso   1.00
H258   H     0.25305   0.87818   0.43391   0.00000  Uiso   1.00
H259   H     0.17621   0.80532   0.36832   0.00000  Uiso   1.00
H260   H     0.15628   0.79293   0.46470   0.00000  Uiso   1.00
H261   H     1.10219   0.85781   0.27363   0.00000  Uiso   1.00
H262   H     1.08151   0.96042   0.28697   0.00000  Uiso   1.00
H263   H     0.99666   0.86502   0.30243   0.00000  Uiso   1.00
H264   H     0.19746   0.98096   0.19325   0.00000  Uiso   1.00
H265   H     0.26730   1.09120   0.17721   0.00000  Uiso   1.00
H266   H     0.19791   1.07590   0.25364   0.00000  Uiso   1.00
H267   H     0.25106   0.87513   0.26117   0.00000  Uiso   1.00
H268   H     0.33639   0.89602   0.32347   0.00000  Uiso   1.00
H269   H     0.36063   0.90274   0.22633   0.00000  Uiso   1.00
H270   H     0.45702   1.15512   0.26741   0.00000  Uiso   1.00
H271   H     0.43400   1.07284   0.19433   0.00000  Uiso   1.00
H272   H     0.48133   1.05531   0.28743   0.00000  Uiso   1.00
H273   H     0.66449   0.12878   0.33842   0.00000  Uiso   1.00
H274   H     0.71734   0.23108   0.31884   0.00000  Uiso   1.00
H275   H     0.60224   0.17886   0.28323   0.00000  Uiso   1.00
H276   H     0.52310   0.05110   0.42727   0.00000  Uiso   1.00
H277   H     0.44932   0.11088   0.42225   0.00000  Uiso   1.00
H278   H     0.50900   0.10583   0.50838   0.00000  Uiso   1.00
H279   H     0.71618   0.31792   0.48127   0.00000  Uiso   1.00
H280   H     0.74656   0.22747   0.46089   0.00000  Uiso   1.00
H281   H     0.67740   0.23648   0.54691   0.00000  Uiso   1.00
H282   H     0.32720   0.99461   0.85180   0.00000  Uiso   1.00
H283   H     0.31574   0.87592   0.85093   0.00000  Uiso   1.00
H284   H     0.28552   0.92113   0.77307   0.00000  Uiso   1.00
H285   H     0.39491   0.17715   0.14049   0.00000  Uiso   1.00
H286   H     0.33540   0.18893   0.05666   0.00000  Uiso   1.00
H287   H     0.31592   0.23596   0.14146   0.00000  Uiso   1.00
H288   H     0.54010   0.28107  -0.00461   0.00000  Uiso   1.00
H289   H     0.54983   0.23221   0.08398   0.00000  Uiso   1.00
H290   H     0.60399   0.33651   0.07140   0.00000  Uiso   1.00
H291   H     0.38944   0.45810   0.63352   0.00000  Uiso   1.00
H292   H     0.44035   0.46889   0.54621   0.00000  Uiso   1.00
H293   H     0.33874   0.37667   0.56355   0.00000  Uiso   1.00
H294   H     0.37761   0.15788   0.84586   0.00000  Uiso   1.00
H295   H     0.40376   0.24279   0.91663   0.00000  Uiso   1.00
H296   H     0.48518   0.18360   0.90719   0.00000  Uiso   1.00
H297   H     0.45590   0.36070   0.70149   0.00000  Uiso   1.00
H298   H     0.44027   0.39941   0.78728   0.00000  Uiso   1.00
H299   H     0.36378   0.29985   0.76054   0.00000  Uiso   1.00
H300   H     0.31490   0.61221   0.11081   0.00000  Uiso   1.00
H301   H     0.37681   0.64465   0.01980   0.00000  Uiso   1.00
H302   H     0.40585   0.71187   0.10753   0.00000  Uiso   1.00
H303   H     0.61440   0.64645   0.10331   0.00000  Uiso   1.00
H304   H     0.57931   0.66094   0.20216   0.00000  Uiso   1.00
H305   H     0.55755   0.72232   0.12890   0.00000  Uiso   1.00
H306   H     0.31519   0.69797   0.54213   0.00000  Uiso   1.00
H307   H     0.30022   0.76462   0.46992   0.00000  Uiso   1.00
H308   H     0.20371   0.70228   0.52642   0.00000  Uiso   1.00
H309   H     0.45123   0.93693   0.60106   0.00000  Uiso   1.00
H310   H     0.36404   0.98044   0.57029   0.00000  Uiso   1.00
H311   H     0.41051   0.90971   0.51089   0.00000  Uiso   1.00
H312   H     0.23612   0.92189   0.64819   0.00000  Uiso   1.00
H313   H     0.19316   0.82263   0.68487   0.00000  Uiso   1.00
H314   H     0.16120   0.83380   0.58954   0.00000  Uiso   1.00
H315   H     0.42206   0.67817   0.26212   0.00000  Uiso   1.00
H316   H     0.48962   0.78323   0.22561   0.00000  Uiso   1.00
H317   H     0.38496   0.77191   0.28189   0.00000  Uiso   1.00
H318   H     0.54150   0.91651   0.31547   0.00000  Uiso   1.00
H319   H     0.59063   0.92522   0.41004   0.00000  Uiso   1.00
H320   H     0.47308   0.89727   0.39728   0.00000  Uiso   1.00
H321   H     0.66611   0.81574   0.28918   0.00000  Uiso   1.00
H322   H     0.63871   0.71114   0.32322   0.00000  Uiso   1.00
H323   H     0.68008   0.80610   0.38722   0.00000  Uiso   1.00
H324   H     0.41773   0.55818   0.72614   0.00000  Uiso   1.00
H325   H     0.48295   0.54200   0.80545   0.00000  Uiso   1.00
H326   H     0.52760   0.63427   0.74959   0.00000  Uiso   1.00
H327   H     0.90856   1.03620   0.29797   0.00000  Uiso   1.00
H328   H     0.93380   0.98012   0.37465   0.00000  Uiso   1.00
H329   H     1.01699   1.05801   0.32238   0.00000  Uiso   1.00
H330   H     0.59108   0.01431   0.53409   0.00000  Uiso   1.00
H331   H     0.70282   0.00840   0.55691   0.00000  Uiso   1.00
H332   H     0.68512   0.09663   0.50704   0.00000  Uiso   1.00
H333   H     0.72502   0.00707   0.70517   0.00000  Uiso   1.00
H334   H     0.61150  -0.02027   0.71276   0.00000  Uiso   1.00
H335   H     0.67888   0.06948   0.77472   0.00000  Uiso   1.00
H336   H     0.82790   0.18704   0.68629   0.00000  Uiso   1.00
H337   H     0.76489   0.25627   0.69332   0.00000  Uiso   1.00
H338   H     0.79198   0.21910   0.60107   0.00000  Uiso   1.00
H339   H     0.90389   0.26204   0.17725   0.00000  Uiso   1.00
H340   H     0.80579   0.27097   0.22478   0.00000  Uiso   1.00
H341   H     0.83417   0.17547   0.22206   0.00000  Uiso   1.00
H342   H     0.83969   0.36917   0.34745   0.00000  Uiso   1.00
H343   H     0.96014   0.42670   0.32826   0.00000  Uiso   1.00
H344   H     0.92296   0.37534   0.41176   0.00000  Uiso   1.00
H345   H     0.55558  -0.00603   0.88406   0.00000  Uiso   1.00
H346   H     0.46076   0.03372   0.90742   0.00000  Uiso   1.00
H347   H     0.54949   0.09650   0.85022   0.00000  Uiso   1.00
H348   H     0.64569   0.04535   1.09499   0.00000  Uiso   1.00
H349   H     0.60580   0.10378   1.02797   0.00000  Uiso   1.00
H350   H     0.68314   0.16479   1.09896   0.00000  Uiso   1.00
H351   H     0.71943  -0.04844   0.96833   0.00000  Uiso   1.00
H352   H     0.80863   0.01874   0.91726   0.00000  Uiso   1.00
H353   H     0.69265   0.01283   0.89333   0.00000  Uiso   1.00
H354   H     0.81918   0.06301   1.13526   0.00000  Uiso   1.00
H355   H     0.88322   0.15417   1.09006   0.00000  Uiso   1.00
H356   H     0.88228   0.05357   1.05448   0.00000  Uiso   1.00
H357   H     0.64769   0.37155   0.31297   0.00000  Uiso   1.00
H358   H     0.64163   0.31945   0.21788   0.00000  Uiso   1.00
H359   H     0.54754   0.29799   0.28202   0.00000  Uiso   1.00
H360   H     0.72827   0.31889   0.12198   0.00000  Uiso   1.00
H361   H     0.82298   0.30224   0.07729   0.00000  Uiso   1.00
H362   H     0.72150   0.28381   0.02403   0.00000  Uiso   1.00
H363   H     0.74225   0.38295   0.60846   0.00000  Uiso   1.00
H364   H     0.64326   0.34130   0.65717   0.00000  Uiso   1.00
H365   H     0.70683   0.44158   0.68544   0.00000  Uiso   1.00
H366   H     0.71566   0.45962   0.45819   0.00000  Uiso   1.00
H367   H     0.77760   0.53510   0.53689   0.00000  Uiso   1.00
H368   H     0.70466   0.55893   0.48114   0.00000  Uiso   1.00
H369   H     0.55418   0.55035   0.61286   0.00000  Uiso   1.00
H370   H     0.65426   0.59046   0.66257   0.00000  Uiso   1.00
H371   H     0.57296   0.49878   0.69164   0.00000  Uiso   1.00
H372   H     0.93412   0.19597   0.79226   0.00000  Uiso   1.00
H373   H     0.83600   0.10253   0.80742   0.00000  Uiso   1.00
H374   H     0.92877   0.13456   0.87171   0.00000  Uiso   1.00
H375   H     0.70293   0.20835   0.81494   0.00000  Uiso   1.00
H376   H     0.77791   0.32070   0.80942   0.00000  Uiso   1.00
H377   H     0.71320   0.28594   0.88960   0.00000  Uiso   1.00
H378   H     0.86311   0.67938   0.18762   0.00000  Uiso   1.00
H379   H     0.75746   0.67084   0.23109   0.00000  Uiso   1.00
H380   H     0.77581   0.67368   0.13056   0.00000  Uiso   1.00
H381   H     0.80890   0.52120   0.30537   0.00000  Uiso   1.00
H382   H     0.88529   0.49774   0.23414   0.00000  Uiso   1.00
H383   H     0.78268   0.42033   0.25461   0.00000  Uiso   1.00
H384   H     0.62381   0.85887   0.51727   0.00000  Uiso   1.00
H385   H     0.58064   0.90120   0.59766   0.00000  Uiso   1.00
H386   H     0.50143   0.83244   0.52662   0.00000  Uiso   1.00
H387   H     0.88170   1.05057   0.52101   0.00000  Uiso   1.00
H388   H     0.78958   1.04116   0.46054   0.00000  Uiso   1.00
H389   H     0.83554   1.13394   0.51261   0.00000  Uiso   1.00
H390   H     0.88917   0.63197   0.78160   0.00000  Uiso   1.00
H391   H     0.79246   0.58242   0.71302   0.00000  Uiso   1.00
H392   H     0.83835   0.51678   0.76898   0.00000  Uiso   1.00
H393   H     0.85928   0.70087   0.92282   0.00000  Uiso   1.00
H394   H     0.86269   0.59665   0.95044   0.00000  Uiso   1.00
H395   H     0.77244   0.64527   0.97403   0.00000  Uiso   1.00
H396   H     0.72170   0.79826   0.96462   0.00000  Uiso   1.00
H397   H     0.65070   0.69971   0.99706   0.00000  Uiso   1.00
H398   H     0.66376   0.80513   1.04544   0.00000  Uiso   1.00
H399   H     0.59697   0.89448   0.82767   0.00000  Uiso   1.00
H400   H     0.62081   0.79458   0.79750   0.00000  Uiso   1.00
H401   H     0.69260   0.87105   0.85824   0.00000  Uiso   1.00
H402   H     0.46915   0.81403   1.02358   0.00000  Uiso   1.00
H403   H     0.47039   0.87734   0.93951   0.00000  Uiso   1.00
H404   H     0.55791   0.90823   1.00841   0.00000  Uiso   1.00
H405   H     1.01738   0.82165   0.51711   0.00000  Uiso   1.00
H406   H     0.94776   0.80105   0.43248   0.00000  Uiso   1.00
H407   H     0.97542   0.90735   0.47851   0.00000  Uiso   1.00
H408   H     0.78221   0.65831   0.58772   0.00000  Uiso   1.00
H409   H     0.83334   0.72988   0.51838   0.00000  Uiso   1.00
H410   H     0.71612   0.68469   0.51274   0.00000  Uiso   1.00
H411   H     0.64123   0.65674   0.84243   0.00000  Uiso   1.00
H412   H     0.68863   0.68379   0.75360   0.00000  Uiso   1.00
H413   H     0.74145   0.73921   0.84440   0.00000  Uiso   1.00
H414   H     0.91320   0.83412   0.66659   0.00000  Uiso   1.00
H415   H     0.84621   0.73891   0.71230   0.00000  Uiso   1.00
H416   H     0.83877   0.84678   0.73598   0.00000  Uiso   1.00
H417   H     0.79567   0.95140   0.62403   0.00000  Uiso   1.00
H418   H     0.76449   0.91479   0.52295   0.00000  Uiso   1.00
H419   H     0.87161   0.93013   0.56260   0.00000  Uiso   1.00
loop_
_geom_bond_atom_site_label_1
_geom_bond_atom_site_label_2
_geom_bond_distance
_geom_bond_site_symmetry_2
_ccdc_geom_bond_type
Si1    C52     1.868   .     S
Si1    O56     1.535   .     S
Si1    C53     1.831   1_545 S
Si1    C54     1.830   1_545 S
Si2    O60     1.623   .     S
Si2    O68     1.627   .     S
Si2    C55     1.887   1_455 S
Si2    O147    1.567   1_455 S
Si3    O56     1.612   .     S
Si3    O69     1.643   .     S
Si3    C57     1.825   1_554 S
Si3    C58     1.802   1_554 S
Si4    O61     1.606   .     S
Si4    O97     1.639   .     S
Si4    O91     1.620   1_545 S
Si4    O95     1.596   1_545 S
Si5    O66     1.598   .     S
Si5    O71     1.589   .     S
Si5    C59     1.808   1_455 S
Si5    O141    1.595   1_455 S
Si6    O60     1.581   .     S
Si6    O61     1.606   .     S
Si6    C62     1.862   .     S
Si6    O72     1.619   .     S
Si7    C63     1.841   .     S
Si7    O67     1.595   .     S
Si7    C64     1.880   1_545 S
Si7    C65     1.838   1_545 S
Si8    O66     1.617   .     S
Si8    O67     1.544   .     S
Si8    O80     1.619   .     S
Si8    O98     1.592   .     S
Si9    O68     1.564   .     S
Si9    O69     1.572   .     S
Si9    O70     1.626   .     S
Si9    O107    1.574   .     S
Si10   O70     1.620   .     S
Si10   O87     1.622   .     S
Si10   O81     1.638   1_554 S
Si10   O122    1.626   1_554 S
Si11   O71     1.632   .     S
Si11   O72     1.634   .     S
Si11   O77     1.583   .     S
Si11   O112    1.561   .     S
Si12   C73     1.910   .     S
Si12   O83     1.637   .     S
Si12   C74     1.843   1_455 S
Si12   C75     1.856   1_455 S
Si13   C76     1.844   .     S
Si13   O77     1.598   .     S
Si13   C78     1.826   .     S
Si13   O108    1.562   .     S
Si14   C79     1.857   .     S
Si14   O80     1.584   .     S
Si14   O84     1.609   .     S
Si14   O120    1.579   .     S
Si15   O81     1.656   .     S
Si15   C82     1.806   .     S
Si15   O158    1.616   1_455 S
Si15   O167    1.624   1_455 S
Si16   O83     1.572   .     S
Si16   O84     1.552   .     S
Si16   C85     1.843   .     S
Si16   O114    1.636   .     S
Si17   C86     1.827   .     S
Si17   O87     1.566   .     S
Si17   C88     1.856   .     S
Si17   C89     1.901   .     S
Si18   C90     1.876   .     S
Si18   O91     1.595   .     S
Si18   C92     1.832   1_455 S
Si18   C186    1.858   1_455 S
Si19   C93     1.818   .     S
Si19   C94     1.894   .     S
Si19   O95     1.616   .     S
Si19   C96     1.881   .     S
Si20   O97     1.606   .     S
Si20   O98     1.627   .     S
Si20   O103    1.602   .     S
Si20   O110    1.599   .     S
Si21   C99     1.897   .     S
Si21   C100    1.832   .     S
Si21   C101    1.839   .     S
Si21   O111    1.573   .     S
Si22   O104    1.631   .     S
Si22   C151    1.783   .     S
Si22   C102    1.875   1_545 S
Si22   O140    1.641   1_545 S
Si23   O103    1.641   .     S
Si23   O104    1.667   .     S
Si23   O118    1.646   .     S
Si23   O146    1.568   .     S
Si24   C105    1.854   .     S
Si24   C106    1.810   .     S
Si24   O109    1.542   .     S
Si24   O155    1.619   .     S
Si25   O107    1.614   .     S
Si25   O108    1.574   .     S
Si25   O115    1.613   .     S
Si25   O123    1.599   .     S
Si26   O109    1.547   .     S
Si26   O124    1.595   .     S
Si26   O121    1.654   1_554 S
Si26   O170    1.635   1_554 S
Si27   O110    1.629   .     S
Si27   O111    1.588   .     S
Si27   O116    1.591   .     S
Si27   O160    1.606   .     S
Si28   O112    1.548   .     S
Si28   C113    1.859   .     S
Si28   O114    1.551   .     S
Si28   O127    1.553   .     S
Si29   O115    1.629   .     S
Si29   O116    1.586   .     S
Si29   O128    1.647   .     S
Si29   O157    1.671   .     S
Si30   C117    1.848   .     S
Si30   O118    1.582   .     S
Si30   C119    1.871   .     S
Si30   O168    1.601   .     S
Si31   O120    1.634   .     S
Si31   O121    1.603   .     S
Si31   O122    1.610   .     S
Si31   O136    1.666   .     S
Si32   O123    1.561   .     S
Si32   O124    1.598   .     S
Si32   C125    1.860   .     S
Si32   C126    1.848   .     S
Si33   O127    1.544   .     S
Si33   O128    1.642   .     S
Si33   O133    1.657   .     S
Si33   O175    1.627   .     S
Si34   C129    1.805   .     S
Si34   C130    1.815   .     S
Si34   C131    1.861   .     S
Si34   O138    1.620   .     S
Si35   C132    1.795   .     S
Si35   O133    1.642   .     S
Si35   C134    1.838   .     S
Si35   C135    1.897   .     S
Si36   O136    1.588   .     S
Si36   C137    1.885   .     S
Si36   O139    1.594   .     S
Si36   O182    1.587   .     S
Si37   O138    1.598   .     S
Si37   O139    1.633   .     S
Si37   O140    1.661   .     S
Si37   O178    1.628   .     S
Si38   O141    1.615   .     S
Si38   O149    1.601   .     S
Si38   C142    1.867   1_545 S
Si38   C177    1.838   1_545 S
Si39   C143    1.854   .     S
Si39   C144    1.842   .     S
Si39   C145    1.872   .     S
Si39   O146    1.600   .     S
Si40   O147    1.596   .     S
Si40   C148    1.823   .     S
Si40   O149    1.606   .     S
Si40   C150    1.871   .     S
Si41   C152    1.883   .     S
Si41   C153    1.875   .     S
Si41   C154    1.833   .     S
Si41   O164    1.606   .     S
Si42   O155    1.624   .     S
Si42   C156    1.808   .     S
Si42   O157    1.664   .     S
Si42   O171    1.603   .     S
Si43   C159    1.859   .     S
Si43   O172    1.631   .     S
Si43   O158    1.693   1_554 S
Si43   O169    1.725   1_554 S
Si44   O160    1.560   .     S
Si44   C161    1.772   .     S
Si44   C162    1.818   .     S
Si44   C163    1.916   .     S
Si45   O164    1.589   .     S
Si45   C165    1.874   .     S
Si45   C166    1.929   .     S
Si45   O167    1.620   .     S
Si46   O168    1.644   .     S
Si46   O169    1.618   .     S
Si46   O170    1.612   .     S
Si46   O179    1.592   .     S
Si47   O171    1.644   .     S
Si47   O172    1.620   .     S
Si47   C173    1.884   .     S
Si47   C174    1.925   .     S
Si48   O175    1.608   .     S
Si48   C176    1.810   .     S
Si48   O178    1.598   .     S
Si48   O188    1.578   .     S
Si49   O179    1.581   .     S
Si49   C180    1.828   .     S
Si49   C181    1.921   .     S
Si49   C189    1.873   .     S
Si50   O182    1.588   .     S
Si50   C183    1.916   .     S
Si50   C184    1.884   .     S
Si50   C185    1.860   .     S
Si51   C187    1.843   .     S
Si51   O188    1.620   .     S
Si51   C190    1.902   .     S
Si51   C191    1.887   .     S
C52    H192    1.087   .     S
C52    H193    1.120   .     S
C52    H194    1.119   .     S
C53    H195    1.124   .     S
C53    H196    1.127   .     S
C53    H197    1.069   .     S
C53    Si1     1.831   1_565 S
C54    H198    1.058   .     S
C54    H199    1.056   .     S
C54    H200    1.153   .     S
C54    Si1     1.830   1_565 S
C55    H201    1.093   .     S
C55    H202    1.108   .     S
C55    H203    1.111   .     S
C55    Si2     1.887   1_655 S
C57    H204    1.155   .     S
C57    H205    1.147   .     S
C57    H206    1.097   .     S
C57    Si3     1.825   1_556 S
C58    H207    1.081   .     S
C58    H208    1.133   .     S
C58    H209    1.135   .     S
C58    Si3     1.802   1_556 S
C59    H210    1.133   .     S
C59    H211    1.066   .     S
C59    H212    1.132   .     S
C59    Si5     1.808   1_655 S
C62    H213    1.087   .     S
C62    H214    1.093   .     S
C62    H215    1.138   .     S
C63    H216    1.079   .     S
C63    H217    1.116   .     S
C63    H218    1.096   .     S
C64    H219    1.072   .     S
C64    H220    1.112   .     S
C64    H221    1.050   .     S
C64    Si7     1.880   1_565 S
C65    H222    1.127   .     S
C65    H223    1.024   .     S
C65    H224    1.120   .     S
C65    Si7     1.838   1_565 S
C73    H225    1.098   .     S
C73    H226    1.140   .     S
C73    H227    1.129   .     S
C74    H228    1.099   .     S
C74    H229    1.171   .     S
C74    H230    1.121   .     S
C74    Si12    1.843   1_655 S
C75    H231    1.105   .     S
C75    H232    1.110   .     S
C75    H233    1.125   .     S
C75    Si12    1.856   1_655 S
C76    H234    1.080   .     S
C76    H235    1.121   .     S
C76    H236    1.131   .     S
C78    H237    1.123   .     S
C78    H238    1.103   .     S
C78    H239    1.075   .     S
C79    H240    1.169   .     S
C79    H241    1.080   .     S
C79    H242    1.076   .     S
O81    Si10    1.638   1_556 S
C82    H243    1.113   .     S
C82    H244    1.103   .     S
C82    H245    1.073   .     S
C85    H246    1.137   .     S
C85    H247    1.082   .     S
C85    H248    1.085   .     S
C86    H249    1.075   .     S
C86    H250    1.115   .     S
C86    H251    1.109   .     S
C88    H252    1.112   .     S
C88    H253    1.113   .     S
C88    H254    1.110   .     S
C89    H255    1.073   .     S
C89    H256    1.083   .     S
C89    H257    1.145   .     S
C90    H258    1.149   .     S
C90    H259    1.051   .     S
C90    H260    1.103   .     S
O91    Si4     1.620   1_565 S
C92    H261    1.115   .     S
C92    H262    1.110   .     S
C92    H263    1.143   .     S
C92    Si18    1.832   1_655 S
C93    H264    1.137   .     S
C93    H265    1.096   .     S
C93    H266    1.103   .     S
C94    H267    1.084   .     S
C94    H268    1.040   .     S
C94    H269    1.138   .     S
O95    Si4     1.596   1_565 S
C96    H270    1.077   .     S
C96    H271    1.130   .     S
C96    H272    1.109   .     S
C99    H273    1.062   .     S
C99    H274    1.118   .     S
C99    H275    1.114   .     S
C100   H276    1.057   .     S
C100   H277    1.112   .     S
C100   H278    1.091   .     S
C101   H279    1.098   .     S
C101   H280    1.169   .     S
C101   H281    1.085   .     S
C102   H282    1.130   .     S
C102   H283    1.105   .     S
C102   H284    1.073   .     S
C102   Si22    1.875   1_565 S
C105   H285    1.113   .     S
C105   H286    1.066   .     S
C105   H287    1.111   .     S
C106   H288    1.071   .     S
C106   H289    1.096   .     S
C106   H290    1.040   .     S
C113   H291    1.097   .     S
C113   H292    1.075   .     S
C113   H293    1.108   .     S
C117   H294    1.158   .     S
C117   H295    1.120   .     S
C117   H296    1.169   .     S
C119   H297    1.076   .     S
C119   H298    1.097   .     S
C119   H299    1.109   .     S
O121   Si26    1.654   1_556 S
O122   Si10    1.626   1_556 S
C125   H300    1.150   .     S
C125   H301    1.115   .     S
C125   H302    1.104   .     S
C126   H303    1.107   .     S
C126   H304    1.139   .     S
C126   H305    1.054   .     S
C129   H306    1.121   .     S
C129   H307    1.087   .     S
C129   H308    1.159   .     S
C130   H309    1.104   .     S
C130   H310    1.119   .     S
C130   H311    1.112   .     S
C131   H312    1.112   .     S
C131   H313    1.092   .     S
C131   H314    1.079   .     S
C132   H315    1.149   .     S
C132   H316    1.099   .     S
C132   H317    1.164   .     S
C134   H318    1.111   .     S
C134   H319    1.143   .     S
C134   H320    1.072   .     S
C135   H321    1.114   .     S
C135   H322    1.120   .     S
C135   H323    1.101   .     S
C137   H324    1.129   .     S
C137   H325    1.097   .     S
C137   H326    1.102   .     S
O140   Si22    1.641   1_565 S
O141   Si5     1.595   1_655 S
C142   H327    1.099   .     S
C142   H328    1.107   .     S
C142   H329    1.085   .     S
C142   Si38    1.867   1_565 S
C143   H330    1.112   .     S
C143   H331    1.087   .     S
C143   H332    1.135   .     S
C144   H333    1.106   .     S
C144   H334    1.112   .     S
C144   H335    1.105   .     S
C145   H336    1.099   .     S
C145   H337    1.136   .     S
C145   H338    1.090   .     S
O147   Si2     1.567   1_655 S
C148   H339    1.083   .     S
C148   H340    1.098   .     S
C148   H341    1.106   .     S
C150   H342    1.141   .     S
C150   H343    1.095   .     S
C150   H344    1.080   .     S
C151   H345    1.135   .     S
C151   H346    1.140   .     S
C151   H347    1.131   .     S
C152   H348    1.081   .     S
C152   H349    1.127   .     S
C152   H350    1.099   .     S
C153   H351    1.075   .     S
C153   H352    1.122   .     S
C153   H353    1.098   .     S
C154   H354    1.100   .     S
C154   H355    1.038   .     S
C154   H356    1.075   .     S
C156   H357    1.103   .     S
C156   H358    1.094   .     S
C156   H359    1.116   .     S
O158   Si15    1.616   1_655 S
O158   Si43    1.693   1_556 S
C159   H360    1.084   .     S
C159   H361    1.138   .     S
C159   H362    1.106   .     S
C161   H363    1.130   .     S
C161   H364    1.065   .     S
C161   H365    1.074   .     S
C162   H366    1.085   .     S
C162   H367    1.117   .     S
C162   H368    1.062   .     S
C163   H369    1.028   .     S
C163   H370    1.119   .     S
C163   H371    1.098   .     S
C165   H372    1.125   .     S
C165   H373    1.096   .     S
C165   H374    1.090   .     S
C166   H375    1.161   .     S
C166   H376    1.096   .     S
C166   H377    1.147   .     S
O167   Si15    1.624   1_655 S
O169   Si43    1.725   1_556 S
O170   Si26    1.635   1_556 S
C173   H378    1.068   .     S
C173   H379    1.131   .     S
C173   H380    1.088   .     S
C174   H381    1.125   .     S
C174   H382    1.115   .     S
C174   H383    1.082   .     S
C176   H384    1.117   .     S
C176   H385    1.126   .     S
C176   H386    1.064   .     S
C177   H387    1.070   .     S
C177   H388    1.073   .     S
C177   H389    1.127   .     S
C177   Si38    1.838   1_565 S
C180   H390    1.118   .     S
C180   H391    1.099   .     S
C180   H392    1.108   .     S
C181   H393    1.125   .     S
C181   H394    1.136   .     S
C181   H395    1.095   .     S
C183   H396    1.075   .     S
C183   H397    1.133   .     S
C183   H398    1.098   .     S
C184   H399    1.105   .     S
C184   H400    1.088   .     S
C184   H401    1.098   .     S
C185   H402    1.071   .     S
C185   H403    1.118   .     S
C185   H404    1.058   .     S
C186   H405    1.115   .     S
C186   H406    1.145   .     S
C186   H407    1.169   .     S
C186   Si18    1.858   1_655 S
C187   H408    1.100   .     S
C187   H409    1.055   .     S
C187   H410    1.101   .     S
C189   H411    1.052   .     S
C189   H412    1.110   .     S
C189   H413    1.117   .     S
C190   H414    1.094   .     S
C190   H415    1.133   .     S
C190   H416    1.134   .     S
C191   H417    1.136   .     S
C191   H418    1.114   .     S
C191   H419    1.082   .     S
