data_333-15-11-10-15-30-18
_audit_creation_date              2025-03-07
_audit_creation_method            'Materials Studio'
_symmetry_space_group_name_H-M    'P1'
_symmetry_Int_Tables_number       1
_symmetry_cell_setting            triclinic
loop_
_symmetry_equiv_pos_as_xyz
  x,y,z
_cell_length_a                    15.6892
_cell_length_b                    18.0911
_cell_length_c                    18.5890
_cell_angle_alpha                 86.0753
_cell_angle_beta                  82.8709
_cell_angle_gamma                 117.1128
loop_
_atom_site_label
_atom_site_type_symbol
_atom_site_fract_x
_atom_site_fract_y
_atom_site_fract_z
_atom_site_U_iso_or_equiv
_atom_site_adp_type
_atom_site_occupancy
Si1    Si    0.14671   0.06696   0.09533   0.00000  Uiso   1.00
Si2    Si    0.14626   0.21154   0.00538   0.00000  Uiso   1.00
Si3    Si    0.00332   0.22338   0.90964   0.00000  Uiso   1.00
Si4    Si    0.14362   0.15411   0.66572   0.00000  Uiso   1.00
Si5    Si   -0.11444   0.39762   0.22842   0.00000  Uiso   1.00
Si6    Si    0.26976   0.55417  -0.00080   0.00000  Uiso   1.00
Si7    Si   -0.04827   0.46804   0.51450   0.00000  Uiso   1.00
Si8    Si    0.19336   0.37084   0.82496   0.00000  Uiso   1.00
Si9    Si    0.13709   0.69576  -0.27649   0.00000  Uiso   1.00
Si10   Si    0.14890   0.61528   0.42781   0.00000  Uiso   1.00
Si11   Si    0.00030   0.84223   0.50949   0.00000  Uiso   1.00
Si12   Si   -0.02034   0.74206   0.77168   0.00000  Uiso   1.00
Si13   Si    0.47565   0.06964   0.08974   0.00000  Uiso   1.00
Si14   Si    0.28813   0.19809   0.17953   0.00000  Uiso   1.00
Si15   Si    0.48112   0.21627  -0.00033   0.00000  Uiso   1.00
Si16   Si    0.53417   0.03669   0.52401   0.00000  Uiso   1.00
Si17   Si    0.35082   0.19175   0.62357   0.00000  Uiso   1.00
Si18   Si    0.52890   0.07356   0.82098   0.00000  Uiso   1.00
Si19   Si    0.33496   0.22897   0.90750   0.00000  Uiso   1.00
Si20   Si    0.50894   0.20470   0.71486   0.00000  Uiso   1.00
Si21   Si    0.48522   0.33791   0.10886   0.00000  Uiso   1.00
Si22   Si    0.50480   0.48165  -0.01440   0.00000  Uiso   1.00
Si23   Si    0.49466   0.32398   0.49372   0.00000  Uiso   1.00
Si24   Si    0.39134   0.50847   0.56380   0.00000  Uiso   1.00
Si25   Si    0.39798   0.35833   0.37923   0.00000  Uiso   1.00
Si26   Si    0.51041   0.34576   0.78633   0.00000  Uiso   1.00
Si27   Si    0.35683   0.47280   0.90099   0.00000  Uiso   1.00
Si28   Si    0.52136   0.48583   0.66421   0.00000  Uiso   1.00
Si29   Si    0.57656   0.65013   0.04792   0.00000  Uiso   1.00
Si30   Si    0.63809   0.92893   0.52079   0.00000  Uiso   1.00
Si31   Si    0.50664   0.59582   0.77111   0.00000  Uiso   1.00
Si32   Si    0.33701   0.91404   0.87875   0.00000  Uiso   1.00
Si33   Si    0.82061   0.11760   0.11412   0.00000  Uiso   1.00
Si34   Si    0.82719   0.24523  -0.00881   0.00000  Uiso   1.00
Si35   Si    0.64708   0.20144   0.58189   0.00000  Uiso   1.00
Si36   Si    0.89163   0.21749   0.41821   0.00000  Uiso   1.00
Si37   Si    0.87645   0.05056   0.85726   0.00000  Uiso   1.00
Si38   Si    0.65899   0.22845   0.89636   0.00000  Uiso   1.00
Si39   Si    0.85851   0.40224   0.06843   0.00000  Uiso   1.00
Si40   Si    0.55452   0.38640   0.25610   0.00000  Uiso   1.00
Si41   Si    0.97708   0.59179   0.02495   0.00000  Uiso   1.00
Si42   Si    0.78536   0.33151   0.44973   0.00000  Uiso   1.00
Si43   Si    0.66364   0.46044   0.55029   0.00000  Uiso   1.00
Si44   Si    0.73086   0.41771   0.32421   0.00000  Uiso   1.00
Si45   Si    0.81608   0.34637   0.76991   0.00000  Uiso   1.00
Si46   Si    0.66170   0.48696   0.85976   0.00000  Uiso   1.00
Si47   Si    0.80535   0.45538   0.64101   0.00000  Uiso   1.00
Si48   Si    0.77794   0.56977   0.40181   0.00000  Uiso   1.00
Si49   Si    0.77535   0.71901   0.31888   0.00000  Uiso   1.00
Si50   Si    0.80541   0.60116   0.71903   0.00000  Uiso   1.00
Si51   Si    0.80247   0.73462   0.61131   0.00000  Uiso   1.00
C52    C     0.05295   0.99069   0.17588   0.00000  Uiso   1.00
O53    O     0.10862   0.12168   0.04799   0.00000  Uiso   1.00
C54    C     0.19490   0.30221   0.06306   0.00000  Uiso   1.00
O55    O     0.05741   0.22033   0.97775   0.00000  Uiso   1.00
C56    C     0.10291   0.09676   0.58657   0.00000  Uiso   1.00
C57    C     0.10907   0.08172   0.75426   0.00000  Uiso   1.00
C58    C    -0.18217   0.28575   0.25009   0.00000  Uiso   1.00
C59    C     0.00076   0.44361   0.26224   0.00000  Uiso   1.00
C60    C     0.14194   0.48640  -0.01173   0.00000  Uiso   1.00
C61    C     0.28005   0.52308   0.09195   0.00000  Uiso   1.00
C62    C     0.30588   0.67317   0.98983   0.00000  Uiso   1.00
C63    C     0.01714   0.41033   0.54638   0.00000  Uiso   1.00
O64    O     0.08516   0.29600   0.85050   0.00000  Uiso   1.00
C65    C     0.08532   0.22765   0.66267   0.00000  Uiso   1.00
C66    C     0.25562   0.32952   0.75860   0.00000  Uiso   1.00
C67    C     0.19633   0.46244   0.77870   0.00000  Uiso   1.00
C68    C     0.06350   0.63184  -0.34135   0.00000  Uiso   1.00
C69    C     0.16624   0.62640  -0.21767   0.00000  Uiso   1.00
C70    C     0.17681   0.99707   0.04321   0.00000  Uiso   1.00
O71    O     0.03350   0.55544   0.46494   0.00000  Uiso   1.00
C72    C     0.21419   0.55624   0.41165   0.00000  Uiso   1.00
C73    C     0.15127   0.67374   0.34409   0.00000  Uiso   1.00
C74    C     0.21953   0.69633   0.48387   0.00000  Uiso   1.00
C75    C    -0.01290   0.93806   0.48169   0.00000  Uiso   1.00
C76    C     0.00691   0.78838   0.43290   0.00000  Uiso   1.00
O77    O     0.07689   0.73281   0.77019   0.00000  Uiso   1.00
C78    C     0.01612   0.85098   0.72046   0.00000  Uiso   1.00
C79    C     0.91571   0.73231   0.86453   0.00000  Uiso   1.00
C80    C     0.55726   0.13982   0.14720   0.00000  Uiso   1.00
C81    C     0.37305   0.97893   0.15046   0.00000  Uiso   1.00
C82    C     0.54333   1.02804   0.03446   0.00000  Uiso   1.00
O83    O     0.24113   0.12981   0.12587   0.00000  Uiso   1.00
C84    C     0.33505   0.15302   0.24828   0.00000  Uiso   1.00
C85    C     0.18182   0.21161   0.22482   0.00000  Uiso   1.00
O86    O     0.44364   0.12424   0.04123   0.00000  Uiso   1.00
C87    C     0.48762   0.02429   0.43633   0.00000  Uiso   1.00
C88    C     0.42419   0.97014   0.59824   0.00000  Uiso   1.00
C89    C     0.31754   0.09544   0.57780   0.00000  Uiso   1.00
O90    O     0.25945   0.20577   0.65171   0.00000  Uiso   1.00
C91    C     0.58574   1.01507   0.77599   0.00000  Uiso   1.00
C92    C     0.30961   0.13134   0.86690   0.00000  Uiso   1.00
O93    O     0.38841   0.22035   0.97324   0.00000  Uiso   1.00
O94    O     0.23798   0.23870   0.93734   0.00000  Uiso   1.00
O95    O     0.40184   0.18534   0.69277   0.00000  Uiso   1.00
O96    O     0.49840   0.12418   0.76657   0.00000  Uiso   1.00
O97    O     0.37135   0.28446   0.13406   0.00000  Uiso   1.00
O98    O     0.51373   0.27688   0.06211   0.00000  Uiso   1.00
O99    O     0.50929   0.42142   0.05418   0.00000  Uiso   1.00
O100   O     0.42728   0.27823   0.57240   0.00000  Uiso   1.00
C101   C     0.49624   0.23796   0.44640   0.00000  Uiso   1.00
C102   C     0.28295   0.41505   0.55055   0.00000  Uiso   1.00
C103   C     0.48526   0.54818   0.48455   0.00000  Uiso   1.00
C104   C     0.36732   0.59957   0.58373   0.00000  Uiso   1.00
C105   C     0.27612   0.26676   0.41195   0.00000  Uiso   1.00
O106   O     0.45631   0.37263   0.44520   0.00000  Uiso   1.00
C107   C     0.36569   0.43990   0.34135   0.00000  Uiso   1.00
O108   O     0.41009   0.30481   0.84553   0.00000  Uiso   1.00
O109   O     0.53676   0.27886   0.75806   0.00000  Uiso   1.00
O110   O     0.25149   0.40011   0.88992   0.00000  Uiso   1.00
O111   O     0.40634   0.43874   0.95335   0.00000  Uiso   1.00
O112   O     0.34020   0.54064   0.93528   0.00000  Uiso   1.00
O113   O     0.42636   0.47690   0.63252   0.00000  Uiso   1.00
O114   O     0.49977   0.40000   0.71870   0.00000  Uiso   1.00
C115   C     0.50900   0.63443   0.14141   0.00000  Uiso   1.00
O116   O     0.51055   0.56909   0.01023   0.00000  Uiso   1.00
C117   C     0.60537   0.75055  -0.00573   0.00000  Uiso   1.00
C118   C     0.69594   0.65394   0.05352   0.00000  Uiso   1.00
C119   C     0.63302   0.89974   0.42713   0.00000  Uiso   1.00
C120   C     0.54526   0.83637   0.58585   0.00000  Uiso   1.00
O121   O     0.61737   1.00812   0.52426   0.00000  Uiso   1.00
C122   C     0.75190   0.96124   0.55456   0.00000  Uiso   1.00
O123   O     0.42882   0.51551   0.82506   0.00000  Uiso   1.00
O124   O     0.55217   0.56201   0.70879   0.00000  Uiso   1.00
C125   C     0.45220   0.65781   0.73325   0.00000  Uiso   1.00
C126   C     0.60369   0.66918   0.81990   0.00000  Uiso   1.00
C127   C     0.37643   0.83943   0.83889   0.00000  Uiso   1.00
C128   C     0.28612   0.86725   0.97663   0.00000  Uiso   1.00
O129   O     0.43162   1.00304   0.87379   0.00000  Uiso   1.00
C130   C     0.24868   0.91634   0.81957   0.00000  Uiso   1.00
C131   C     0.25122   0.78236   0.67543   0.00000  Uiso   1.00
C132   C     0.93335   0.18778   0.14301   0.00000  Uiso   1.00
C133   C     0.71899   1.06321   0.19370   0.00000  Uiso   1.00
C134   C     0.84183   1.03473   0.07434   0.00000  Uiso   1.00
O135   O     0.91739   0.24774   0.93219   0.00000  Uiso   1.00
O136   O     0.79246   0.16697   0.05479   0.00000  Uiso   1.00
O137   O     0.57639   0.13138   0.54157   0.00000  Uiso   1.00
C138   C     0.72144   0.16968   0.63341   0.00000  Uiso   1.00
O139   O     0.58613   0.22569   0.64272   0.00000  Uiso   1.00
C140   C     1.01590   0.27284   0.35419   0.00000  Uiso   1.00
C141   C     0.82493   0.11320   0.38026   0.00000  Uiso   1.00
C142   C     0.92957   0.18542   0.50473   0.00000  Uiso   1.00
C143   C     0.86423   0.05653   0.75996   0.00000  Uiso   1.00
O144   O     0.95864   0.13445   0.87733   0.00000  Uiso   1.00
C145   C     0.76106   1.03701   0.91117   0.00000  Uiso   1.00
O146   O     0.60462   0.13429   0.87195   0.00000  Uiso   1.00
O147   O     0.73313   0.22946   0.95100   0.00000  Uiso   1.00
O148   O     0.57111   0.24292   0.93336   0.00000  Uiso   1.00
C149   C     0.72713   0.37444   0.08882   0.00000  Uiso   1.00
O150   O     0.87333   0.33516   0.02465   0.00000  Uiso   1.00
O151   O     0.90373   0.40939   0.14191   0.00000  Uiso   1.00
O152   O     0.54394   0.35820   0.17618   0.00000  Uiso   1.00
C153   C     0.59666   0.49854   0.25034   0.00000  Uiso   1.00
O154   O     0.45734   0.34090   0.31125   0.00000  Uiso   1.00
C155   C     1.05382   0.65639   0.93591   0.00000  Uiso   1.00
O156   O     0.92345   0.49472   0.01807   0.00000  Uiso   1.00
C157   C     1.04827   0.61060   0.09816   0.00000  Uiso   1.00
O158   O     0.71259   0.28368   0.52465   0.00000  Uiso   1.00
O159   O     0.82980   0.27181   0.41850   0.00000  Uiso   1.00
O160   O     0.87511   0.41549   0.46524   0.00000  Uiso   1.00
O161   O     0.60182   0.38288   0.50617   0.00000  Uiso   1.00
O162   O     0.60014   0.49517   0.59265   0.00000  Uiso   1.00
O163   O     0.81861   0.43774   0.25955   0.00000  Uiso   1.00
O164   O     0.63753   0.37285   0.28661   0.00000  Uiso   1.00
O165   O     0.72662   0.35511   0.39205   0.00000  Uiso   1.00
O166   O     0.71795   0.29711   0.82585   0.00000  Uiso   1.00
C167   C     0.86579   0.27223   0.75494   0.00000  Uiso   1.00
C168   C     0.89961   0.43414   0.80805   0.00000  Uiso   1.00
O169   O     0.59831   0.40423   0.82740   0.00000  Uiso   1.00
C170   C     0.74664   0.47421   0.91597   0.00000  Uiso   1.00
C171   C     0.88735   0.61915   1.05782   0.00000  Uiso   1.00
O172   O     0.59368   0.50625   0.91976   0.00000  Uiso   1.00
O173   O     0.89512   0.48972   0.57663   0.00000  Uiso   1.00
O174   O     0.71310   0.43114   0.60521   0.00000  Uiso   1.00
O175   O     0.79662   0.37369   0.69030   0.00000  Uiso   1.00
O176   O     0.74172   0.53599   0.48812   0.00000  Uiso   1.00
O177   O     0.72814   0.49758   0.35259   0.00000  Uiso   1.00
C178   C     0.91328   0.60753   0.37719   0.00000  Uiso   1.00
C179   C     1.11947   0.86743   0.54099   0.00000  Uiso   1.00
C180   C     0.84169   0.71486   0.22994   0.00000  Uiso   1.00
C181   C     0.64848   0.70142   0.31974   0.00000  Uiso   1.00
O182   O     0.76111   0.64723   0.37958   0.00000  Uiso   1.00
C183   C     0.84627   0.82888   0.34904   0.00000  Uiso   1.00
O184   O     0.72524   0.56475   0.79195   0.00000  Uiso   1.00
O185   O     0.81967   0.52597   0.69137   0.00000  Uiso   1.00
O186   O     0.90656   0.66835   0.73197   0.00000  Uiso   1.00
O187   O     0.91147   0.77505   0.56667   0.00000  Uiso   1.00
C188   C     0.70839   0.71640   0.55442   0.00000  Uiso   1.00
O189   O     0.77120   0.65029   0.65868   0.00000  Uiso   1.00
C190   C     0.79563   0.80168   0.68016   0.00000  Uiso   1.00
C191   C     0.90347   0.96454   0.88659   0.00000  Uiso   1.00
H192   H     0.08722   0.96486   0.21074   0.00000  Uiso   1.00
H193   H    -0.00741   0.94435   0.15070   0.00000  Uiso   1.00
H194   H     0.03210   1.03047   0.20559   0.00000  Uiso   1.00
H195   H     0.14112   0.28685   0.11389   0.00000  Uiso   1.00
H196   H     0.20524   0.35990   0.02928   0.00000  Uiso   1.00
H197   H     0.26756   0.31801   0.07245   0.00000  Uiso   1.00
H198   H     0.02835   0.08651   0.58507   0.00000  Uiso   1.00
H199   H     0.09522   0.03269   0.59907   0.00000  Uiso   1.00
H200   H     0.15748   0.13497   0.53669   0.00000  Uiso   1.00
H201   H     0.17557   0.07050   0.76041   0.00000  Uiso   1.00
H202   H     0.04279   0.02412   0.75173   0.00000  Uiso   1.00
H203   H     0.08968   0.10756   0.79845   0.00000  Uiso   1.00
H204   H    -0.21742   0.25869   0.20405   0.00000  Uiso   1.00
H205   H    -0.23806   0.26774   0.29932   0.00000  Uiso   1.00
H206   H    -0.12921   0.26569   0.25879   0.00000  Uiso   1.00
H207   H    -0.01244   0.40886   0.32219   0.00000  Uiso   1.00
H208   H     0.01572   0.50801   0.26741   0.00000  Uiso   1.00
H209   H     0.05838   0.43209   0.23114   0.00000  Uiso   1.00
H210   H     0.13213   0.42388  -0.02392   0.00000  Uiso   1.00
H211   H     0.12628   0.51136  -0.06162   0.00000  Uiso   1.00
H212   H     0.08465   0.47469   0.04000   0.00000  Uiso   1.00
H213   H     0.29342   0.57548   0.11931   0.00000  Uiso   1.00
H214   H     0.34603   0.51795   0.09060   0.00000  Uiso   1.00
H215   H     0.21979   0.45748   0.11727   0.00000  Uiso   1.00
H216   H     0.38256   0.70644   1.00099   0.00000  Uiso   1.00
H217   H     0.25898   0.69106   1.02480   0.00000  Uiso   1.00
H218   H     0.29831   0.69300   0.93365   0.00000  Uiso   1.00
H219   H     0.06955   0.44434   0.58601   0.00000  Uiso   1.00
H220   H     0.05530   0.40050   0.49664   0.00000  Uiso   1.00
H221   H    -0.04077   0.34563   0.57353   0.00000  Uiso   1.00
H222   H     0.12890   0.28181   0.61981   0.00000  Uiso   1.00
H223   H     0.06409   0.24634   0.71494   0.00000  Uiso   1.00
H224   H     0.01978   0.18523   0.64343   0.00000  Uiso   1.00
H225   H     0.23431   0.26490   0.77821   0.00000  Uiso   1.00
H226   H     0.33347   0.36271   0.75383   0.00000  Uiso   1.00
H227   H     0.23309   0.32717   0.70725   0.00000  Uiso   1.00
H228   H     0.23694   0.47990   0.72122   0.00000  Uiso   1.00
H229   H     0.20912   0.50268   0.82113   0.00000  Uiso   1.00
H230   H     0.12071   0.44629   0.77340   0.00000  Uiso   1.00
H231   H    -0.00396   0.58453  -0.31143   0.00000  Uiso   1.00
H232   H     0.09986   0.60059  -0.36227   0.00000  Uiso   1.00
H233   H     0.04544   0.66658  -0.38231   0.00000  Uiso   1.00
H234   H     0.20352   0.60284  -0.25628   0.00000  Uiso   1.00
H235   H     0.09150   0.57419  -0.19136   0.00000  Uiso   1.00
H236   H     0.20619   0.65225  -0.17349   0.00000  Uiso   1.00
H237   H     0.18549   0.96297   0.09119   0.00000  Uiso   1.00
H238   H     0.25366   1.03076   0.01639   0.00000  Uiso   1.00
H239   H     0.11623   0.95082   0.01932   0.00000  Uiso   1.00
H240   H     0.20872   0.51871   0.46534   0.00000  Uiso   1.00
H241   H     0.29594   0.59783   0.39187   0.00000  Uiso   1.00
H242   H     0.17764   0.51160   0.37244   0.00000  Uiso   1.00
H243   H     0.09240   0.63749   0.31555   0.00000  Uiso   1.00
H244   H     0.21797   0.68985   0.30620   0.00000  Uiso   1.00
H245   H     0.14317   0.72666   0.36369   0.00000  Uiso   1.00
H246   H     0.19848   0.74567   0.49146   0.00000  Uiso   1.00
H247   H     0.28994   0.72104   0.45514   0.00000  Uiso   1.00
H248   H     0.20715   0.65920   0.53896   0.00000  Uiso   1.00
H249   H    -0.03864   0.93841   0.42969   0.00000  Uiso   1.00
H250   H     0.05623   0.99050   0.47537   0.00000  Uiso   1.00
H251   H    -0.06377   0.93869   0.52592   0.00000  Uiso   1.00
H252   H     0.03649   0.74531   0.44848   0.00000  Uiso   1.00
H253   H     0.05720   0.83044   0.38122   0.00000  Uiso   1.00
H254   H    -0.06266   0.75568   0.41777   0.00000  Uiso   1.00
H255   H    -0.00440   0.85318   0.66806   0.00000  Uiso   1.00
H256   H     0.09197   0.87634   0.71297   0.00000  Uiso   1.00
H257   H    -0.00927   0.88894   0.75033   0.00000  Uiso   1.00
H258   H     0.97247   0.77257   0.89252   0.00000  Uiso   1.00
H259   H     0.89145   0.67512   0.90107   0.00000  Uiso   1.00
H260   H     0.85694   0.75099   0.86932   0.00000  Uiso   1.00
H261   H     0.52850   0.09586   0.19984   0.00000  Uiso   1.00
H262   H     0.54790   0.19627   0.15622   0.00000  Uiso   1.00
H263   H     0.63557   0.15477   0.12523   0.00000  Uiso   1.00
H264   H     0.39823   0.95411   0.19920   0.00000  Uiso   1.00
H265   H     0.33734   0.92645   0.12150   0.00000  Uiso   1.00
H266   H     0.31611   0.99703   0.16739   0.00000  Uiso   1.00
H267   H     0.61443   1.07635   0.00657   0.00000  Uiso   1.00
H268   H     0.49488   0.99098  -0.00271   0.00000  Uiso   1.00
H269   H     0.55400   0.98059   0.06699   0.00000  Uiso   1.00
H270   H     0.28124   0.08907   0.26914   0.00000  Uiso   1.00
H271   H     0.32592   0.19016   0.29352   0.00000  Uiso   1.00
H272   H     0.41522   0.17201   0.23259   0.00000  Uiso   1.00
H273   H     0.16005   0.17704   0.28286   0.00000  Uiso   1.00
H274   H     0.11067   0.18281   0.20267   0.00000  Uiso   1.00
H275   H     0.20375   0.27942   0.21991   0.00000  Uiso   1.00
H276   H     0.47602  -0.04104   0.42943   0.00000  Uiso   1.00
H277   H     0.54282   0.07561   0.39409   0.00000  Uiso   1.00
H278   H     0.42223   0.03215   0.44107   0.00000  Uiso   1.00
H279   H     0.41651   0.90708   0.61263   0.00000  Uiso   1.00
H280   H     0.35337   0.96290   0.58269   0.00000  Uiso   1.00
H281   H     0.44213   1.01093   0.64250   0.00000  Uiso   1.00
H282   H     0.38159   0.09175   0.55086   0.00000  Uiso   1.00
H283   H     0.27061   0.09787   0.53721   0.00000  Uiso   1.00
H284   H     0.28258   0.04150   0.62114   0.00000  Uiso   1.00
H285   H     0.55187   0.99375   0.73015   0.00000  Uiso   1.00
H286   H     0.58050   0.96480   0.81471   0.00000  Uiso   1.00
H287   H     0.66134   1.04945   0.75677   0.00000  Uiso   1.00
H288   H     0.29604   0.13839   0.81036   0.00000  Uiso   1.00
H289   H     0.24180   0.08009   0.90256   0.00000  Uiso   1.00
H290   H     0.36678   0.11637   0.86853   0.00000  Uiso   1.00
H291   H     0.42286   0.18331   0.45858   0.00000  Uiso   1.00
H292   H     0.55251   0.22031   0.45858   0.00000  Uiso   1.00
H293   H     0.51565   0.25725   0.38536   0.00000  Uiso   1.00
H294   H     0.27118   0.42332   0.49469   0.00000  Uiso   1.00
H295   H     0.21615   0.40513   0.58361   0.00000  Uiso   1.00
H296   H     0.29926   0.36074   0.55941   0.00000  Uiso   1.00
H297   H     0.51014   0.50564   0.46789   0.00000  Uiso   1.00
H298   H     0.55171   0.60411   0.48747   0.00000  Uiso   1.00
H299   H     0.45009   0.55672   0.44265   0.00000  Uiso   1.00
H300   H     0.30737   0.58652   0.62937   0.00000  Uiso   1.00
H301   H     0.33043   0.60161   0.53684   0.00000  Uiso   1.00
H302   H     0.43277   0.65740   0.58107   0.00000  Uiso   1.00
H303   H     0.23771   0.28384   0.45390   0.00000  Uiso   1.00
H304   H     0.28403   0.21129   0.42990   0.00000  Uiso   1.00
H305   H     0.23257   0.25532   0.36858   0.00000  Uiso   1.00
H306   H     0.35745   0.43542   0.28272   0.00000  Uiso   1.00
H307   H     0.42290   0.49999   0.34128   0.00000  Uiso   1.00
H308   H     0.30330   0.43771   0.37428   0.00000  Uiso   1.00
H309   H     0.56044   0.67935   0.17272   0.00000  Uiso   1.00
H310   H     0.47213   0.56994   0.16725   0.00000  Uiso   1.00
H311   H     0.46315   0.66440   0.14252   0.00000  Uiso   1.00
H312   H     0.63930   0.80214   0.02741   0.00000  Uiso   1.00
H313   H     0.53902   0.75319  -0.01344   0.00000  Uiso   1.00
H314   H     0.64895   0.76446  -0.06135   0.00000  Uiso   1.00
H315   H     0.73731   0.71062   0.07682   0.00000  Uiso   1.00
H316   H     0.73519   0.65800  -0.00176   0.00000  Uiso   1.00
H317   H     0.68712   0.59884   0.08977   0.00000  Uiso   1.00
H318   H     0.69004   0.94887   0.38683   0.00000  Uiso   1.00
H319   H     0.55570   0.87589   0.41382   0.00000  Uiso   1.00
H320   H     0.65588   0.85109   0.42396   0.00000  Uiso   1.00
H321   H     0.47376   0.80410   0.56967   0.00000  Uiso   1.00
H322   H     0.53826   0.85941   0.64110   0.00000  Uiso   1.00
H323   H     0.57938   0.79565   0.59441   0.00000  Uiso   1.00
H324   H     0.76901   0.90998   0.56194   0.00000  Uiso   1.00
H325   H     0.75415   0.98818   0.60651   0.00000  Uiso   1.00
H326   H     0.81144   1.00696   0.51316   0.00000  Uiso   1.00
H327   H     0.37609   0.61675   0.72360   0.00000  Uiso   1.00
H328   H     0.49979   0.69304   0.68160   0.00000  Uiso   1.00
H329   H     0.44950   0.70027   0.77314   0.00000  Uiso   1.00
H330   H     0.59972   0.72816   0.81489   0.00000  Uiso   1.00
H331   H     0.67994   0.68844   0.80181   0.00000  Uiso   1.00
H332   H     0.58537   0.64667   0.87859   0.00000  Uiso   1.00
H333   H     0.41917   0.82881   0.87303   0.00000  Uiso   1.00
H334   H     0.41479   0.86776   0.77911   0.00000  Uiso   1.00
H335   H     0.31005   0.77669   0.83828   0.00000  Uiso   1.00
H336   H     0.20646   0.83292   0.98358   0.00000  Uiso   1.00
H337   H     0.30685   0.92038   1.00571   0.00000  Uiso   1.00
H338   H     0.31978   0.82402   0.98389   0.00000  Uiso   1.00
H339   H     0.18488   0.85560   0.82527   0.00000  Uiso   1.00
H340   H     0.28312   0.94273   0.76004   0.00000  Uiso   1.00
H341   H     0.22593   0.96503   0.83680   0.00000  Uiso   1.00
H342   H     0.27407   0.76708   0.62204   0.00000  Uiso   1.00
H343   H     0.30761   0.80053   0.70843   0.00000  Uiso   1.00
H344   H     0.23940   0.83589   0.66405   0.00000  Uiso   1.00
H345   H     0.93200   0.18544   0.20510   0.00000  Uiso   1.00
H346   H     0.95468   0.25489   0.11695   0.00000  Uiso   1.00
H347   H     0.98548   0.16428   0.12394   0.00000  Uiso   1.00
H348   H     0.70931   1.10818   0.23052   0.00000  Uiso   1.00
H349   H     0.72481   1.01673   0.23041   0.00000  Uiso   1.00
H350   H     0.65320   1.02517   0.16641   0.00000  Uiso   1.00
H351   H     0.87565   1.01105   0.11295   0.00000  Uiso   1.00
H352   H     0.88696   1.06468   0.01846   0.00000  Uiso   1.00
H353   H     0.76825   0.98075   0.06875   0.00000  Uiso   1.00
H354   H     0.71285   0.10859   0.62503   0.00000  Uiso   1.00
H355   H     0.70642   0.17170   0.69349   0.00000  Uiso   1.00
H356   H     0.79796   0.20863   0.61412   0.00000  Uiso   1.00
H357   H     1.04630   0.22771   0.34280   0.00000  Uiso   1.00
H358   H     1.06523   0.32757   0.37928   0.00000  Uiso   1.00
H359   H     1.00740   0.29951   0.30078   0.00000  Uiso   1.00
H360   H     0.81957   0.12039   0.31982   0.00000  Uiso   1.00
H361   H     0.74660   0.08914   0.40708   0.00000  Uiso   1.00
H362   H     0.84648   0.06793   0.39501   0.00000  Uiso   1.00
H363   H     0.86700   0.15469   0.54929   0.00000  Uiso   1.00
H364   H     0.98919   0.24159   0.52308   0.00000  Uiso   1.00
H365   H     0.95612   0.13708   0.48683   0.00000  Uiso   1.00
H366   H     0.92972   0.05608   0.72699   0.00000  Uiso   1.00
H367   H     0.85184   0.11114   0.74176   0.00000  Uiso   1.00
H368   H     0.79753  -0.00744   0.75849   0.00000  Uiso   1.00
H369   H     0.70248   0.97933   0.90066   0.00000  Uiso   1.00
H370   H     0.74297   1.08467   0.88776   0.00000  Uiso   1.00
H371   H     0.76079   1.04334   0.96645   0.00000  Uiso   1.00
H372   H     0.69269   0.35069   0.03819   0.00000  Uiso   1.00
H373   H     0.72687   0.43512   0.10313   0.00000  Uiso   1.00
H374   H     0.70104   0.32605   0.14094   0.00000  Uiso   1.00
H375   H     0.55336   0.51715   0.21734   0.00000  Uiso   1.00
H376   H     0.67430   0.52980   0.22701   0.00000  Uiso   1.00
H377   H     0.58381   0.50856   0.30872   0.00000  Uiso   1.00
H378   H     1.06435   0.72169   0.92701   0.00000  Uiso   1.00
H379   H     1.01499   0.62339   0.88972   0.00000  Uiso   1.00
H380   H     1.12298   0.65849   0.93459   0.00000  Uiso   1.00
H381   H     1.09576   0.68135   0.09599   0.00000  Uiso   1.00
H382   H     1.09414   0.57672   0.09333   0.00000  Uiso   1.00
H383   H     1.00427   0.57913   0.15326   0.00000  Uiso   1.00
H384   H     0.88960   0.27662   0.69448   0.00000  Uiso   1.00
H385   H     0.81035   0.20945   0.78963   0.00000  Uiso   1.00
H386   H     0.94072   0.29924   0.77640   0.00000  Uiso   1.00
H387   H     0.97540   0.44984   0.78809   0.00000  Uiso   1.00
H388   H     0.89140   0.41671   0.86926   0.00000  Uiso   1.00
H389   H     0.88944   0.48690   0.79644   0.00000  Uiso   1.00
H390   H     0.71699   0.47309   0.97178   0.00000  Uiso   1.00
H391   H     0.81961   0.52963   0.89946   0.00000  Uiso   1.00
H392   H     0.75415   0.41753   0.90918   0.00000  Uiso   1.00
H393   H     0.92438   0.69030   1.04537   0.00000  Uiso   1.00
H394   H     0.85628   0.59466   1.11467   0.00000  Uiso   1.00
H395   H     0.83092   0.59881   1.02676   0.00000  Uiso   1.00
H396   H     0.95152   0.62226   0.41975   0.00000  Uiso   1.00
H397   H     0.95165   0.65968   0.33152   0.00000  Uiso   1.00
H398   H     0.93194   0.55685   0.36017   0.00000  Uiso   1.00
H399   H     1.17999   0.88758   0.49803   0.00000  Uiso   1.00
H400   H     1.11004   0.81394   0.58111   0.00000  Uiso   1.00
H401   H     1.14182   0.92421   0.57024   0.00000  Uiso   1.00
H402   H     0.82578   0.75094   0.18673   0.00000  Uiso   1.00
H403   H     0.82206   0.64818   0.21719   0.00000  Uiso   1.00
H404   H     0.91876   0.74663   0.23895   0.00000  Uiso   1.00
H405   H     0.63975   0.71668   0.26548   0.00000  Uiso   1.00
H406   H     0.64001   0.74771   0.35401   0.00000  Uiso   1.00
H407   H     0.59175   0.63718   0.34856   0.00000  Uiso   1.00
H408   H     0.92172   0.84493   0.32905   0.00000  Uiso   1.00
H409   H     0.82108   0.82519   0.40514   0.00000  Uiso   1.00
H410   H     0.83769   0.87440   0.30936   0.00000  Uiso   1.00
H411   H     0.72463   0.77506   0.52100   0.00000  Uiso   1.00
H412   H     0.63689   0.68764   0.59064   0.00000  Uiso   1.00
H413   H     0.71412   0.67242   0.51793   0.00000  Uiso   1.00
H414   H     0.82848   0.79702   0.72535   0.00000  Uiso   1.00
H415   H     0.71491   0.77530   0.69275   0.00000  Uiso   1.00
H416   H     0.83171   0.86647   0.64820   0.00000  Uiso   1.00
H417   H     0.98090   0.99695   0.89959   0.00000  Uiso   1.00
H418   H     0.90394   0.93065   0.83678   0.00000  Uiso   1.00
H419   H     0.85193   0.92632   0.93561   0.00000  Uiso   1.00
loop_
_geom_bond_atom_site_label_1
_geom_bond_atom_site_label_2
_geom_bond_distance
_geom_bond_site_symmetry_2
_ccdc_geom_bond_type
Si1    O53     1.632   .     S
Si1    O83     1.604   .     S
Si1    C52     1.905   1_545 S
Si1    C70     1.833   1_545 S
Si2    O53     1.566   .     S
Si2    C54     1.930   .     S
Si2    O55     1.613   1_554 S
Si2    O94     1.652   1_554 S
Si3    O55     1.620   .     S
Si3    O64     1.580   .     S
Si3    O135    1.617   1_455 S
Si3    O144    1.628   1_455 S
Si4    C56     1.867   .     S
Si4    C57     1.885   .     S
Si4    C65     1.929   .     S
Si4    O90     1.595   .     S
Si5    C58     1.792   .     S
Si5    C59     1.827   .     S
Si5    O151    1.580   1_455 S
Si5    O163    1.602   1_455 S
Si6    C60     1.860   .     S
Si6    C61     1.826   .     S
Si6    C62     1.949   1_554 S
Si6    O112    1.629   1_554 S
Si7    C63     1.881   .     S
Si7    O71     1.629   .     S
Si7    O160    1.593   1_455 S
Si7    O173    1.550   1_455 S
Si8    O64     1.599   .     S
Si8    C66     1.878   .     S
Si8    C67     1.792   .     S
Si8    O110    1.578   .     S
Si9    C68     1.856   .     S
Si9    C69     1.854   .     S
Si9    O77     1.596   1_554 S
Si9    C131    1.820   1_554 S
Si10   O71     1.651   .     S
Si10   C72     1.802   .     S
Si10   C73     1.807   .     S
Si10   C74     1.865   .     S
Si11   C75     1.883   .     S
Si11   C76     1.798   .     S
Si11   C179    1.892   1_455 S
Si11   O187    1.569   1_455 S
Si12   O77     1.606   .     S
Si12   C78     1.923   .     S
Si12   C79     1.839   1_455 S
Si12   O186    1.609   1_455 S
Si13   C80     1.854   .     S
Si13   O86     1.576   .     S
Si13   C81     1.856   1_545 S
Si13   C82     1.820   1_545 S
Si14   O83     1.608   .     S
Si14   C84     1.865   .     S
Si14   C85     1.898   .     S
Si14   O97     1.596   .     S
Si15   O86     1.592   .     S
Si15   O98     1.619   .     S
Si15   O93     1.623   1_554 S
Si15   O148    1.616   1_554 S
Si16   C87     1.854   .     S
Si16   O137    1.605   .     S
Si16   C88     1.902   1_545 S
Si16   O121    1.609   1_545 S
Si17   C89     1.875   .     S
Si17   O90     1.599   .     S
Si17   O95     1.621   .     S
Si17   O100    1.611   .     S
Si18   O96     1.576   .     S
Si18   O146    1.658   .     S
Si18   C91     1.847   1_545 S
Si18   O129    1.613   1_545 S
Si19   C92     1.861   .     S
Si19   O93     1.602   .     S
Si19   O94     1.644   .     S
Si19   O108    1.604   .     S
Si20   O95     1.664   .     S
Si20   O96     1.619   .     S
Si20   O109    1.528   .     S
Si20   O139    1.587   .     S
Si21   O97     1.582   .     S
Si21   O98     1.631   .     S
Si21   O99     1.623   .     S
Si21   O152    1.610   .     S
Si22   O99     1.649   .     S
Si22   O116    1.643   .     S
Si22   O111    1.597   1_554 S
Si22   O172    1.605   1_554 S
Si23   O100    1.611   .     S
Si23   C101    1.847   .     S
Si23   O106    1.568   .     S
Si23   O161    1.585   .     S
Si24   C102    1.830   .     S
Si24   C103    1.792   .     S
Si24   C104    1.900   .     S
Si24   O113    1.619   .     S
Si25   C105    1.859   .     S
Si25   O106    1.586   .     S
Si25   C107    1.886   .     S
Si25   O154    1.610   .     S
Si26   O108    1.623   .     S
Si26   O109    1.550   .     S
Si26   O114    1.614   .     S
Si26   O169    1.627   .     S
Si27   O110    1.626   .     S
Si27   O111    1.572   .     S
Si27   O112    1.529   .     S
Si27   O123    1.589   .     S
Si28   O113    1.614   .     S
Si28   O114    1.665   .     S
Si28   O124    1.571   .     S
Si28   O162    1.642   .     S
Si29   C115    1.851   .     S
Si29   O116    1.628   .     S
Si29   C117    1.841   .     S
Si29   C118    1.859   .     S
Si30   C119    1.854   .     S
Si30   C120    1.858   .     S
Si30   O121    1.611   .     S
Si30   C122    1.817   .     S
Si31   O123    1.577   .     S
Si31   O124    1.586   .     S
Si31   C125    1.843   .     S
Si31   C126    1.889   .     S
Si32   C127    1.881   .     S
Si32   C128    1.865   .     S
Si32   O129    1.604   .     S
Si32   C130    1.886   .     S
Si33   C132    1.820   .     S
Si33   O136    1.598   .     S
Si33   C133    1.866   1_545 S
Si33   C134    1.858   1_545 S
Si34   O136    1.615   .     S
Si34   O150    1.654   .     S
Si34   O135    1.660   1_554 S
Si34   O147    1.654   1_554 S
Si35   O137    1.566   .     S
Si35   C138    1.850   .     S
Si35   O139    1.602   .     S
Si35   O158    1.588   .     S
Si36   C140    1.924   .     S
Si36   C141    1.928   .     S
Si36   C142    1.924   .     S
Si36   O159    1.666   .     S
Si37   C143    1.843   .     S
Si37   O144    1.587   .     S
Si37   C145    1.858   1_545 S
Si37   C191    1.855   1_545 S
Si38   O146    1.647   .     S
Si38   O147    1.631   .     S
Si38   O148    1.600   .     S
Si38   O166    1.595   .     S
Si39   C149    1.866   .     S
Si39   O150    1.592   .     S
Si39   O151    1.602   .     S
Si39   O156    1.646   .     S
Si40   O152    1.607   .     S
Si40   C153    1.815   .     S
Si40   O154    1.551   .     S
Si40   O164    1.592   .     S
Si41   O156    1.587   .     S
Si41   C157    1.819   .     S
Si41   C155    1.874   1_554 S
Si41   C171    1.750   1_554 S
Si42   O158    1.591   .     S
Si42   O159    1.631   .     S
Si42   O160    1.608   .     S
Si42   O165    1.650   .     S
Si43   O161    1.642   .     S
Si43   O162    1.566   .     S
Si43   O174    1.557   .     S
Si43   O176    1.616   .     S
Si44   O163    1.596   .     S
Si44   O164    1.594   .     S
Si44   O165    1.610   .     S
Si44   O177    1.588   .     S
Si45   O166    1.572   .     S
Si45   C167    1.853   .     S
Si45   C168    1.797   .     S
Si45   O175    1.636   .     S
Si46   O169    1.583   .     S
Si46   C170    1.874   .     S
Si46   O172    1.613   .     S
Si46   O184    1.652   .     S
Si47   O173    1.576   .     S
Si47   O174    1.559   .     S
Si47   O175    1.625   .     S
Si47   O185    1.585   .     S
Si48   O176    1.610   .     S
Si48   O177    1.601   .     S
Si48   C178    1.892   .     S
Si48   O182    1.578   .     S
Si49   C180    1.866   .     S
Si49   C181    1.865   .     S
Si49   O182    1.575   .     S
Si49   C183    1.948   .     S
Si50   O184    1.598   .     S
Si50   O185    1.584   .     S
Si50   O186    1.559   .     S
Si50   O189    1.669   .     S
Si51   O187    1.604   .     S
Si51   C188    1.843   .     S
Si51   O189    1.540   .     S
Si51   C190    1.849   .     S
C52    H192    1.096   .     S
C52    H193    1.122   .     S
C52    H194    1.074   .     S
C52    Si1     1.905   1_565 S
C54    H195    1.111   .     S
C54    H196    1.114   .     S
C54    H197    1.082   .     S
O55    Si2     1.613   1_556 S
C56    H198    1.102   .     S
C56    H199    1.114   .     S
C56    H200    1.116   .     S
C57    H201    1.167   .     S
C57    H202    1.096   .     S
C57    H203    1.052   .     S
C58    H204    1.098   .     S
C58    H205    1.101   .     S
C58    H206    1.072   .     S
C59    H207    1.187   .     S
C59    H208    1.092   .     S
C59    H209    1.120   .     S
C60    H210    1.113   .     S
C60    H211    1.107   .     S
C60    H212    1.167   .     S
C61    H213    1.055   .     S
C61    H214    1.078   .     S
C61    H215    1.146   .     S
C62    H216    1.128   .     S
C62    H217    1.094   .     S
C62    H218    1.119   .     S
C62    Si6     1.949   1_556 S
C63    H219    1.161   .     S
C63    H220    1.108   .     S
C63    H221    1.134   .     S
C65    H222    1.100   .     S
C65    H223    1.112   .     S
C65    H224    1.088   .     S
C66    H225    1.080   .     S
C66    H226    1.076   .     S
C66    H227    1.055   .     S
C67    H228    1.118   .     S
C67    H229    1.085   .     S
C67    H230    1.104   .     S
C68    H231    1.061   .     S
C68    H232    1.032   .     S
C68    H233    1.098   .     S
C69    H234    1.097   .     S
C69    H235    1.136   .     S
C69    H236    1.095   .     S
C70    H237    1.107   .     S
C70    H238    1.101   .     S
C70    H239    1.110   .     S
C70    Si1     1.833   1_565 S
C72    H240    1.139   .     S
C72    H241    1.145   .     S
C72    H242    1.129   .     S
C73    H243    1.087   .     S
C73    H244    1.090   .     S
C73    H245    1.101   .     S
C74    H246    1.096   .     S
C74    H247    1.037   .     S
C74    H248    1.129   .     S
C75    H249    1.094   .     S
C75    H250    1.051   .     S
C75    H251    1.077   .     S
C76    H252    1.113   .     S
C76    H253    1.135   .     S
C76    H254    1.063   .     S
O77    Si9     1.596   1_556 S
C78    H255    1.067   .     S
C78    H256    1.048   .     S
C78    H257    1.089   .     S
C79    H258    1.082   .     S
C79    H259    1.076   .     S
C79    H260    1.114   .     S
C79    Si12    1.839   1_655 S
C80    H261    1.118   .     S
C80    H262    1.116   .     S
C80    H263    1.143   .     S
C81    H264    1.172   .     S
C81    H265    1.079   .     S
C81    H266    1.102   .     S
C81    Si13    1.856   1_565 S
C82    H267    1.088   .     S
C82    H268    1.111   .     S
C82    H269    1.102   .     S
C82    Si13    1.820   1_565 S
C84    H270    1.081   .     S
C84    H271    1.147   .     S
C84    H272    1.134   .     S
C85    H273    1.137   .     S
C85    H274    1.140   .     S
C85    H275    1.106   .     S
C87    H276    1.130   .     S
C87    H277    1.108   .     S
C87    H278    1.092   .     S
C88    H279    1.101   .     S
C88    H280    1.135   .     S
C88    H281    1.119   .     S
C88    Si16    1.902   1_565 S
C89    H282    1.098   .     S
C89    H283    1.130   .     S
C89    H284    1.094   .     S
C91    H285    1.062   .     S
C91    H286    1.086   .     S
C91    H287    1.055   .     S
C91    Si18    1.847   1_565 S
C92    H288    1.108   .     S
C92    H289    1.128   .     S
C92    H290    1.052   .     S
O93    Si15    1.623   1_556 S
O94    Si2     1.652   1_556 S
C101   H291    1.105   .     S
C101   H292    1.109   .     S
C101   H293    1.125   .     S
C102   H294    1.089   .     S
C102   H295    1.078   .     S
C102   H296    1.129   .     S
C103   H297    1.057   .     S
C103   H298    1.083   .     S
C103   H299    1.050   .     S
C104   H300    1.110   .     S
C104   H301    1.112   .     S
C104   H302    1.074   .     S
C105   H303    1.074   .     S
C105   H304    1.101   .     S
C105   H305    1.091   .     S
C107   H306    1.118   .     S
C107   H307    1.048   .     S
C107   H308    1.071   .     S
O111   Si22    1.597   1_556 S
O112   Si6     1.629   1_556 S
C115   H309    1.111   .     S
C115   H310    1.080   .     S
C115   H311    1.079   .     S
C117   H312    1.114   .     S
C117   H313    1.090   .     S
C117   H314    1.110   .     S
C118   H315    1.088   .     S
C118   H316    1.110   .     S
C118   H317    1.107   .     S
C119   H318    1.081   .     S
C119   H319    1.154   .     S
C119   H320    1.094   .     S
C120   H321    1.096   .     S
C120   H322    1.146   .     S
C120   H323    1.104   .     S
O121   Si16    1.609   1_565 S
C122   H324    1.082   .     S
C122   H325    1.108   .     S
C122   H326    1.086   .     S
C125   H327    1.128   .     S
C125   H328    1.091   .     S
C125   H329    1.114   .     S
C126   H330    1.095   .     S
C126   H331    1.082   .     S
C126   H332    1.092   .     S
C127   H333    1.047   .     S
C127   H334    1.155   .     S
C127   H335    1.140   .     S
C128   H336    1.098   .     S
C128   H337    1.073   .     S
C128   H338    1.135   .     S
O129   Si18    1.613   1_565 S
C130   H339    1.084   .     S
C130   H340    1.135   .     S
C130   H341    1.141   .     S
C131   H342    1.109   .     S
C131   H343    1.079   .     S
C131   H344    1.078   .     S
C131   Si9     1.820   1_556 S
C132   H345    1.149   .     S
C132   H346    1.153   .     S
C132   H347    1.114   .     S
C133   H348    1.147   .     S
C133   H349    1.090   .     S
C133   H350    1.152   .     S
C133   Si33    1.866   1_565 S
C134   H351    1.113   .     S
C134   H352    1.125   .     S
C134   H353    1.146   .     S
C134   Si33    1.858   1_565 S
O135   Si3     1.617   1_655 S
O135   Si34    1.660   1_556 S
C138   H354    1.076   .     S
C138   H355    1.119   .     S
C138   H356    1.074   .     S
C140   H357    1.137   .     S
C140   H358    1.119   .     S
C140   H359    1.123   .     S
C141   H360    1.140   .     S
C141   H361    1.131   .     S
C141   H362    1.051   .     S
C142   H363    1.094   .     S
C142   H364    1.133   .     S
C142   H365    1.178   .     S
C143   H366    1.133   .     S
C143   H367    1.129   .     S
C143   H368    1.159   .     S
O144   Si3     1.628   1_655 S
C145   H369    1.082   .     S
C145   H370    1.102   .     S
C145   H371    1.042   .     S
C145   Si37    1.858   1_565 S
O147   Si34    1.654   1_556 S
O148   Si15    1.616   1_556 S
C149   H372    1.154   .     S
C149   H373    1.149   .     S
C149   H374    1.154   .     S
O151   Si5     1.580   1_655 S
C153   H375    1.111   .     S
C153   H376    1.095   .     S
C153   H377    1.121   .     S
C155   H378    1.113   .     S
C155   H379    1.155   .     S
C155   H380    1.065   .     S
C155   Si41    1.874   1_556 S
C157   H381    1.145   .     S
C157   H382    1.138   .     S
C157   H383    1.112   .     S
O160   Si7     1.593   1_655 S
O163   Si5     1.602   1_655 S
C167   H384    1.125   .     S
C167   H385    1.150   .     S
C167   H386    1.183   .     S
C168   H387    1.096   .     S
C168   H388    1.135   .     S
C168   H389    1.050   .     S
C170   H390    1.078   .     S
C170   H391    1.111   .     S
C170   H392    1.098   .     S
C171   H393    1.137   .     S
C171   H394    1.078   .     S
C171   H395    1.054   .     S
C171   Si41    1.750   1_556 S
O172   Si22    1.605   1_556 S
O173   Si7     1.550   1_655 S
C178   H396    1.028   .     S
C178   H397    1.104   .     S
C178   H398    1.135   .     S
C179   H399    1.062   .     S
C179   H400    1.122   .     S
C179   H401    1.127   .     S
C179   Si11    1.892   1_655 S
C180   H402    1.123   .     S
C180   H403    1.151   .     S
C180   H404    1.118   .     S
C181   H405    1.069   .     S
C181   H406    1.131   .     S
C181   H407    1.133   .     S
C183   H408    1.089   .     S
C183   H409    1.055   .     S
C183   H410    1.133   .     S
O186   Si12    1.609   1_655 S
O187   Si11    1.569   1_655 S
C188   H411    1.096   .     S
C188   H412    1.102   .     S
C188   H413    1.107   .     S
C190   H414    1.056   .     S
C190   H415    1.117   .     S
C190   H416    1.124   .     S
C191   H417    1.149   .     S
C191   H418    1.146   .     S
C191   H419    1.088   .     S
C191   Si37    1.855   1_565 S
