data_333-15-11-10-15-30-14
_audit_creation_date              2025-03-07
_audit_creation_method            'Materials Studio'
_symmetry_space_group_name_H-M    'P1'
_symmetry_Int_Tables_number       1
_symmetry_cell_setting            triclinic
loop_
_symmetry_equiv_pos_as_xyz
  x,y,z
_cell_length_a                    15.9405
_cell_length_b                    16.8226
_cell_length_c                    19.1090
_cell_angle_alpha                 84.9730
_cell_angle_beta                  93.9551
_cell_angle_gamma                 117.5370
loop_
_atom_site_label
_atom_site_type_symbol
_atom_site_fract_x
_atom_site_fract_y
_atom_site_fract_z
_atom_site_U_iso_or_equiv
_atom_site_adp_type
_atom_site_occupancy
Si1    Si    0.21068  -0.07703   0.12005   0.00000  Uiso   1.00
Si2    Si    0.15194   0.17520  -0.02395   0.00000  Uiso   1.00
Si3    Si    0.18115   0.02326   0.48423   0.00000  Uiso   1.00
Si4    Si   -0.01572   0.17427   0.59132   0.00000  Uiso   1.00
Si5    Si    0.12789  -0.00109   0.76050   0.00000  Uiso   1.00
Si6    Si    0.01311   0.20001   0.87073   0.00000  Uiso   1.00
Si7    Si    0.16175   0.18000   0.68831   0.00000  Uiso   1.00
Si8    Si    0.03914   0.46660   0.10358   0.00000  Uiso   1.00
Si9    Si    0.03732   0.26460   0.44292   0.00000  Uiso   1.00
Si10   Si    0.17203   0.33567   0.76488   0.00000  Uiso   1.00
Si11   Si   -0.03032   0.41423   0.85456   0.00000  Uiso   1.00
Si12   Si    0.19279   0.44808   0.63195   0.00000  Uiso   1.00
Si13   Si    0.14650   0.65937   0.05292   0.00000  Uiso   1.00
Si14   Si    0.15888   0.83346  -0.02327   0.00000  Uiso   1.00
Si15   Si    0.22643   0.73787   0.47624   0.00000  Uiso   1.00
Si16   Si    0.19971   0.74875   0.78969   0.00000  Uiso   1.00
Si17   Si   -0.00383   0.83905   0.85764   0.00000  Uiso   1.00
Si18   Si    0.17874   0.87973   0.68031   0.00000  Uiso   1.00
Si19   Si    0.53596   0.18058  -0.03042   0.00000  Uiso   1.00
Si20   Si    0.50201  -0.00610   0.49315   0.00000  Uiso   1.00
Si21   Si    0.29806   0.15841   0.58979   0.00000  Uiso   1.00
Si22   Si    0.47903   0.01251   0.79314   0.00000  Uiso   1.00
Si23   Si    0.47662   0.15370   0.67418   0.00000  Uiso   1.00
Si24   Si    0.45708   0.50499  -0.02732   0.00000  Uiso   1.00
Si25   Si    0.40831   0.30316   0.47638   0.00000  Uiso   1.00
Si26   Si    0.47921   0.50334   0.45207   0.00000  Uiso   1.00
Si27   Si    0.48310   0.31858   0.73324   0.00000  Uiso   1.00
Si28   Si    0.33469   0.50841   0.84277   0.00000  Uiso   1.00
Si29   Si    0.50607   0.77682   0.13795   0.00000  Uiso   1.00
Si30   Si    0.50799   0.85213  -0.01708   0.00000  Uiso   1.00
Si31   Si    0.32976   0.87933   0.59064   0.00000  Uiso   1.00
Si32   Si    0.56460   0.87809   0.42124   0.00000  Uiso   1.00
Si33   Si    0.48731   0.68980   0.78095   0.00000  Uiso   1.00
Si34   Si    0.34161   0.86305   0.89327   0.00000  Uiso   1.00
Si35   Si    0.46933   0.85764   0.70325   0.00000  Uiso   1.00
Si36   Si    0.84041  -0.00010   0.02536   0.00000  Uiso   1.00
Si37   Si    0.78136   0.21177   0.18035   0.00000  Uiso   1.00
Si38   Si    0.82805   0.16047  -0.05708   0.00000  Uiso   1.00
Si39   Si    0.88624  -0.02609   0.57302   0.00000  Uiso   1.00
Si40   Si    0.63551   0.15695   0.57810   0.00000  Uiso   1.00
Si41   Si    0.65366   0.16652   0.85814   0.00000  Uiso   1.00
Si42   Si    0.82197   0.19443   0.66274   0.00000  Uiso   1.00
Si43   Si    0.86172   0.31768   0.04213   0.00000  Uiso   1.00
Si44   Si    0.85940   0.46542  -0.06067   0.00000  Uiso   1.00
Si45   Si    0.73984   0.29725   0.46799   0.00000  Uiso   1.00
Si46   Si    0.73860   0.43431   0.35294   0.00000  Uiso   1.00
Si47   Si    0.79784   0.31406   0.76265   0.00000  Uiso   1.00
Si48   Si    0.82999   0.50821   0.70458   0.00000  Uiso   1.00
Si49   Si    0.83438   0.84238  -0.05323   0.00000  Uiso   1.00
Si50   Si    0.85781   0.67831   0.77357   0.00000  Uiso   1.00
Si51   Si    0.63742   0.81496   0.88303   0.00000  Uiso   1.00
C52    C     0.32997  -0.07356   0.14640   0.00000  Uiso   1.00
C53    C     0.11472   0.85196   0.18537   0.00000  Uiso   1.00
C54    C     0.22420   0.03843   0.13465   0.00000  Uiso   1.00
C55    C     0.11378   0.05265  -0.01630   0.00000  Uiso   1.00
C56    C     0.18128   0.22377   0.06059   0.00000  Uiso   1.00
C57    C     0.25297   0.22374   0.91932   0.00000  Uiso   1.00
C58    C     0.12913   0.08990   0.43551   0.00000  Uiso   1.00
C59    C     0.09406   0.90045   0.48711   0.00000  Uiso   1.00
C60    C     0.28226   1.03160   0.43299   0.00000  Uiso   1.00
C61    C     0.23390   0.02934   0.82320   0.00000  Uiso   1.00
O62    O     0.07624   0.20110   0.94155   0.00000  Uiso   1.00
C63    C     0.97907   0.08964   0.83534   0.00000  Uiso   1.00
O64    O     0.08137   0.18527   0.63411   0.00000  Uiso   1.00
O65    O     0.12037   0.08723   0.73248   0.00000  Uiso   1.00
C66    C     0.13684   0.44365   0.13928   0.00000  Uiso   1.00
O67    O     0.02203   0.24196   0.52623   0.00000  Uiso   1.00
C68    C    -0.04853   0.16976   0.38596   0.00000  Uiso   1.00
C69    C     0.02389   0.36951   0.42021   0.00000  Uiso   1.00
C70    C     0.16383   0.30124   0.41395   0.00000  Uiso   1.00
O71    O     0.07717   0.28268   0.81503   0.00000  Uiso   1.00
O72    O     0.19553   0.26191   0.73600   0.00000  Uiso   1.00
C73    C     0.04751   0.39042   0.92160   0.00000  Uiso   1.00
C74    C     0.10159   0.47709   0.58971   0.00000  Uiso   1.00
O75    O     0.14724   0.38059   0.69787   0.00000  Uiso   1.00
C76    C     0.22990   0.39697   0.56714   0.00000  Uiso   1.00
O77    O     0.07577   0.55772   0.05211   0.00000  Uiso   1.00
C78    C     0.24873   0.66577   0.01385   0.00000  Uiso   1.00
C79    C     0.17426   0.68852   0.14551   0.00000  Uiso   1.00
O80    O     0.11695   0.72792   0.00786   0.00000  Uiso   1.00
O81    O     0.17544   0.89564   0.04164   0.00000  Uiso   1.00
C82    C     0.09650   0.66759   0.48324   0.00000  Uiso   1.00
C83    C     0.29263   0.67274   0.46936   0.00000  Uiso   1.00
C84    C     0.24495   0.81094   0.39393   0.00000  Uiso   1.00
C85    C     0.03758   0.46199   0.77473   0.00000  Uiso   1.00
C86    C     0.09109   0.66318   0.84473   0.00000  Uiso   1.00
C87    C     0.30595   0.53751   0.65927   0.00000  Uiso   1.00
C88    C     0.21214   0.66696   0.73166   0.00000  Uiso   1.00
O89    O     0.07717   0.83934   0.91887   0.00000  Uiso   1.00
O90    O     0.03687   0.91984   0.79904   0.00000  Uiso   1.00
C91    C     0.07813   0.78541   0.64274   0.00000  Uiso   1.00
O92    O     0.19841   0.83798   0.75181   0.00000  Uiso   1.00
O93    O     0.15050   0.95689   0.69750   0.00000  Uiso   1.00
C94    C     0.59930   0.16740   0.05180   0.00000  Uiso   1.00
C95    C     0.53361   0.29037  -0.01649   0.00000  Uiso   1.00
C96    C     0.41576   0.08266   0.96427   0.00000  Uiso   1.00
C97    C     0.50086   0.05726   0.40643   0.00000  Uiso   1.00
O98    O     0.21728   0.06684   0.55736   0.00000  Uiso   1.00
O99    O     0.25132   0.18224   0.64982   0.00000  Uiso   1.00
O100   O     0.38657   0.13991   0.61752   0.00000  Uiso   1.00
O101   O     0.44855   0.07360   0.73621   0.00000  Uiso   1.00
C102   C     0.39833   0.41610   0.03870   0.00000  Uiso   1.00
C103   C     0.57796   0.51888   0.96398   0.00000  Uiso   1.00
O104   O     0.32694   0.23236   0.52667   0.00000  Uiso   1.00
C105   C     0.37441   0.27802   0.38310   0.00000  Uiso   1.00
C106   C     0.51950   0.29769   0.49578   0.00000  Uiso   1.00
C107   C     0.41082   0.56436   0.45643   0.00000  Uiso   1.00
O108   O     0.41957   0.40210   0.48349   0.00000  Uiso   1.00
C109   C     0.59590   0.55205   0.50526   0.00000  Uiso   1.00
C110   C     0.50276   0.50976   0.35551   0.00000  Uiso   1.00
C111   C     0.38432   0.27013   0.79145   0.00000  Uiso   1.00
O112   O     0.50969   0.24872   0.70408   0.00000  Uiso   1.00
C113   C     0.46127   0.38264   0.65968   0.00000  Uiso   1.00
C114   C     0.57725   0.39422   0.79044   0.00000  Uiso   1.00
O115   O     0.26009   0.41435   0.80603   0.00000  Uiso   1.00
O116   O     0.40637   0.48950   0.89607   0.00000  Uiso   1.00
C117   C     0.27439   0.55191   0.89369   0.00000  Uiso   1.00
C118   C     0.39930   0.69594   0.19335   0.00000  Uiso   1.00
C119   C     0.47287   0.60987   0.00436   0.00000  Uiso   1.00
C120   C     0.59623   0.73441   0.15272   0.00000  Uiso   1.00
C121   C     0.55411   0.88745   0.18101   0.00000  Uiso   1.00
O122   O     0.47780   0.78851   0.05410   0.00000  Uiso   1.00
C123   C     0.56113   0.97255  -0.00369   0.00000  Uiso   1.00
O124   O     0.26162   0.79575   0.54669   0.00000  Uiso   1.00
O125   O     0.40773   0.95860   0.54168   0.00000  Uiso   1.00
O126   O     0.26894   0.91472   0.63140   0.00000  Uiso   1.00
C127   C     0.47814   0.82870   0.34468   0.00000  Uiso   1.00
C128   C     0.58890   0.78577   0.46479   0.00000  Uiso   1.00
O129   O     0.51985   0.91138   0.47781   0.00000  Uiso   1.00
C130   C     0.67985   0.97511   0.38977   0.00000  Uiso   1.00
O131   O     0.40021   0.59425   0.79077   0.00000  Uiso   1.00
C132   C     0.56125   0.67767   0.71575   0.00000  Uiso   1.00
O133   O     0.29105   0.78942   0.83950   0.00000  Uiso   1.00
O134   O     0.41215   0.82945   0.93485   0.00000  Uiso   1.00
O135   O     0.40042   0.96073   0.85263   0.00000  Uiso   1.00
O136   O     0.26286   0.86172   0.94435   0.00000  Uiso   1.00
O137   O     0.38488   0.84177   0.64923   0.00000  Uiso   1.00
O138   O     0.44902   0.76213   0.74986   0.00000  Uiso   1.00
O139   O     0.48611   0.93812   0.75101   0.00000  Uiso   1.00
C140   C     0.57270   0.89523   0.65566   0.00000  Uiso   1.00
C141   C     0.93720   0.07833   0.08426   0.00000  Uiso   1.00
C142   C     0.75502   0.91693   0.08810   0.00000  Uiso   1.00
C143   C     0.71842   0.09217   0.15773   0.00000  Uiso   1.00
C144   C     0.89905   0.23569   0.21800   0.00000  Uiso   1.00
C145   C     0.70008   0.22430   0.23762   0.00000  Uiso   1.00
O146   O     0.91844   0.20280   0.89006   0.00000  Uiso   1.00
O147   O     0.80461   0.06146  -0.02626   0.00000  Uiso   1.00
C148   C     0.77871  -0.09096   0.61942   0.00000  Uiso   1.00
O149   O     0.91416   0.07806   0.56671   0.00000  Uiso   1.00
C150   C     0.96689   0.95419   0.63132   0.00000  Uiso   1.00
C151   C     0.86713   0.91947   0.48656   0.00000  Uiso   1.00
O152   O     0.58726   0.06423   0.53923   0.00000  Uiso   1.00
O153   O     0.56669   0.15745   0.63647   0.00000  Uiso   1.00
O154   O     0.57599   0.07145   0.83169   0.00000  Uiso   1.00
O155   O     0.73570   0.15081   0.89917   0.00000  Uiso   1.00
O156   O     0.59820   0.20216   0.90323   0.00000  Uiso   1.00
O157   O     0.92310   0.20990   0.63419   0.00000  Uiso   1.00
O158   O     0.73277   0.16537   0.60794   0.00000  Uiso   1.00
C159   C     0.78097   0.09729   0.72658   0.00000  Uiso   1.00
O160   O     0.79783   0.27894   0.11079   0.00000  Uiso   1.00
O161   O     0.84767   0.22803   0.00544   0.00000  Uiso   1.00
O162   O     0.96898   0.37866   0.06706   0.00000  Uiso   1.00
O163   O     0.93845   0.47641   0.88896   0.00000  Uiso   1.00
O164   O     0.83175   0.38170  -0.00974   0.00000  Uiso   1.00
C165   C     0.89352   0.56540  -0.01136   0.00000  Uiso   1.00
C166   C     0.74647   0.44030   0.89389   0.00000  Uiso   1.00
O167   O     0.66206   0.23971   0.52499   0.00000  Uiso   1.00
C168   C     0.78449   0.22276   0.43716   0.00000  Uiso   1.00
C169   C     0.84366   0.38226   0.51496   0.00000  Uiso   1.00
C170   C     0.97484   0.47052   0.18051   0.00000  Uiso   1.00
C171   C     0.85917   0.46898   0.31836   0.00000  Uiso   1.00
C172   C     0.65396   0.41539   0.27862   0.00000  Uiso   1.00
O173   O     0.70200   0.34568   0.40464   0.00000  Uiso   1.00
C174   C     0.74719   0.53005   0.39798   0.00000  Uiso   1.00
O175   O     0.69954   0.23509   0.79208   0.00000  Uiso   1.00
O176   O     0.83659   0.28123   0.70175   0.00000  Uiso   1.00
O177   O     0.87559   0.33427   0.82521   0.00000  Uiso   1.00
C178   C     0.92452   0.53542   0.64346   0.00000  Uiso   1.00
C179   C     0.72642   0.51078   0.64946   0.00000  Uiso   1.00
O180   O     0.79372   0.40786   0.74069   0.00000  Uiso   1.00
O181   O     0.91286   0.85456   0.89285   0.00000  Uiso   1.00
C182   C     0.83265   0.75400   0.01487   0.00000  Uiso   1.00
O183   O     0.86833   0.93681  -0.02253   0.00000  Uiso   1.00
C184   C     0.75422   0.64260   0.82972   0.00000  Uiso   1.00
O185   O     0.86292   0.58677   0.75998   0.00000  Uiso   1.00
C186   C     0.82849   0.72821   0.69233   0.00000  Uiso   1.00
O187   O     0.94558   0.74357   0.82077   0.00000  Uiso   1.00
O188   O     0.55780   0.72650   0.85027   0.00000  Uiso   1.00
O189   O     0.72911   0.80521   0.90598   0.00000  Uiso   1.00
C190   C     0.68530   0.91938   0.82293   0.00000  Uiso   1.00
O191   O     0.58935   0.83968   0.94723   0.00000  Uiso   1.00
H192   H     0.39252  -0.00808   0.13767   0.00000  Uiso   1.00
H193   H     0.34800  -0.12022   0.11834   0.00000  Uiso   1.00
H194   H     0.32397  -0.09860   0.20171   0.00000  Uiso   1.00
H195   H     0.08520   0.89198   0.21003   0.00000  Uiso   1.00
H196   H     0.14575   0.82034   0.22486   0.00000  Uiso   1.00
H197   H     0.05955   0.79870   0.15187   0.00000  Uiso   1.00
H198   H     0.15113   0.03347   0.13932   0.00000  Uiso   1.00
H199   H     0.26864   0.08822   0.09179   0.00000  Uiso   1.00
H200   H     0.26306   0.06179   0.18401   0.00000  Uiso   1.00
H201   H     0.17592   0.04243  -0.02015   0.00000  Uiso   1.00
H202   H     0.06065   0.01686  -0.05795   0.00000  Uiso   1.00
H203   H     0.08015   0.02160   0.03548   0.00000  Uiso   1.00
H204   H     0.25542   0.24981   0.07874   0.00000  Uiso   1.00
H205   H     0.14583   0.17336   0.10518   0.00000  Uiso   1.00
H206   H     0.16175   0.27956   0.05807   0.00000  Uiso   1.00
H207   H     0.22388   0.20676   0.86793   0.00000  Uiso   1.00
H208   H     0.30588   0.19788   0.94240   0.00000  Uiso   1.00
H209   H     0.28611   0.29966   0.91813   0.00000  Uiso   1.00
H210   H     0.10558   0.12134   0.47646   0.00000  Uiso   1.00
H211   H     0.07476   0.05887   0.39253   0.00000  Uiso   1.00
H212   H     0.19016   0.14828   0.40872   0.00000  Uiso   1.00
H213   H     0.13258   0.86682   0.51294   0.00000  Uiso   1.00
H214   H     0.06725   0.87430   0.43554   0.00000  Uiso   1.00
H215   H     0.03303   0.88798   0.51573   0.00000  Uiso   1.00
H216   H     0.27058   1.02719   0.37585   0.00000  Uiso   1.00
H217   H     0.30299   0.97901   0.46032   0.00000  Uiso   1.00
H218   H     0.34560   1.09810   0.44338   0.00000  Uiso   1.00
H219   H     0.23652   0.07704   0.85841   0.00000  Uiso   1.00
H220   H     0.30148   0.05512   0.79705   0.00000  Uiso   1.00
H221   H     0.22372  -0.03333   0.85339   0.00000  Uiso   1.00
H222   H     1.04618   0.08320   0.84464   0.00000  Uiso   1.00
H223   H     0.96424   0.09349   0.77645   0.00000  Uiso   1.00
H224   H     0.91296   0.03697   0.85970   0.00000  Uiso   1.00
H225   H     0.11932   0.39488   0.18357   0.00000  Uiso   1.00
H226   H     0.20084   0.50327   0.15722   0.00000  Uiso   1.00
H227   H     0.16183   0.42455   0.09652   0.00000  Uiso   1.00
H228   H    -0.08384   0.10309   0.41931   0.00000  Uiso   1.00
H229   H    -0.00851   0.15785   0.34423   0.00000  Uiso   1.00
H230   H    -0.10831   0.18141   0.36545   0.00000  Uiso   1.00
H231   H     0.08996   0.42398   0.39782   0.00000  Uiso   1.00
H232   H    -0.00587   0.38761   0.46492   0.00000  Uiso   1.00
H233   H    -0.02438   0.36477   0.37606   0.00000  Uiso   1.00
H234   H     0.17191   0.27646   0.36296   0.00000  Uiso   1.00
H235   H     0.19086   0.26804   0.45542   0.00000  Uiso   1.00
H236   H     0.21009   0.37320   0.41167   0.00000  Uiso   1.00
H237   H     0.10875   0.37937   0.89980   0.00000  Uiso   1.00
H238   H    -0.00018   0.33570   0.95299   0.00000  Uiso   1.00
H239   H     0.08710   0.44536   0.95480   0.00000  Uiso   1.00
H240   H     0.10950   0.49475   0.53032   0.00000  Uiso   1.00
H241   H     0.10284   0.53542   0.61361   0.00000  Uiso   1.00
H242   H     0.03405   0.41970   0.60499   0.00000  Uiso   1.00
H243   H     0.21193   0.41978   0.51560   0.00000  Uiso   1.00
H244   H     0.19869   0.32595   0.56919   0.00000  Uiso   1.00
H245   H     0.30487   0.41746   0.56550   0.00000  Uiso   1.00
H246   H     0.23374   0.68130  -0.04359   0.00000  Uiso   1.00
H247   H     0.26103   0.60431   0.02701   0.00000  Uiso   1.00
H248   H     0.30921   0.72740   0.03821   0.00000  Uiso   1.00
H249   H     0.22728   0.75847   0.14619   0.00000  Uiso   1.00
H250   H     0.18692   0.63753   0.18097   0.00000  Uiso   1.00
H251   H     0.10864   0.68936   0.16488   0.00000  Uiso   1.00
H252   H     0.04982   0.69842   0.47243   0.00000  Uiso   1.00
H253   H     0.08849   0.63433   0.53594   0.00000  Uiso   1.00
H254   H     0.07131   0.61443   0.44437   0.00000  Uiso   1.00
H255   H     0.25881   0.61450   0.50778   0.00000  Uiso   1.00
H256   H     0.36689   0.72052   0.48626   0.00000  Uiso   1.00
H257   H     0.27526   0.64332   0.41833   0.00000  Uiso   1.00
H258   H     0.30763   0.87010   0.39838   0.00000  Uiso   1.00
H259   H     0.18263   0.82154   0.38532   0.00000  Uiso   1.00
H260   H     0.25152   0.77444   0.35209   0.00000  Uiso   1.00
H261   H     0.02970   0.52052   0.75905   0.00000  Uiso   1.00
H262   H     0.00627   0.41124   0.73430   0.00000  Uiso   1.00
H263   H     0.11280   0.47773   0.77754   0.00000  Uiso   1.00
H264   H     0.10293   0.60853   0.87843   0.00000  Uiso   1.00
H265   H     0.02470   0.63121   0.81157   0.00000  Uiso   1.00
H266   H     0.07761   0.70090   0.87954   0.00000  Uiso   1.00
H267   H     0.33891   0.57931   0.61603   0.00000  Uiso   1.00
H268   H     0.34949   0.50717   0.68951   0.00000  Uiso   1.00
H269   H     0.29809   0.58026   0.69316   0.00000  Uiso   1.00
H270   H     0.14959   0.63895   0.69341   0.00000  Uiso   1.00
H271   H     0.22072   0.61865   0.77184   0.00000  Uiso   1.00
H272   H     0.27250   0.69762   0.69336   0.00000  Uiso   1.00
H273   H     0.09871   0.73964   0.61882   0.00000  Uiso   1.00
H274   H     0.03600   0.80251   0.60748   0.00000  Uiso   1.00
H275   H     0.03279   0.74001   0.68370   0.00000  Uiso   1.00
H276   H     0.55501   0.10960   0.08598   0.00000  Uiso   1.00
H277   H     0.62601   0.22714   0.07755   0.00000  Uiso   1.00
H278   H     0.65989   0.15572   0.03656   0.00000  Uiso   1.00
H279   H     0.60708   0.34563  -0.01175   0.00000  Uiso   1.00
H280   H     0.48998   0.27278   0.03504   0.00000  Uiso   1.00
H281   H     0.48191   0.29171  -0.05742   0.00000  Uiso   1.00
H282   H     0.39815   0.07595   0.90942   0.00000  Uiso   1.00
H283   H     0.36947   0.10347   0.98292   0.00000  Uiso   1.00
H284   H     0.40847   0.01826   0.99048   0.00000  Uiso   1.00
H285   H     0.43884   0.00734   0.37479   0.00000  Uiso   1.00
H286   H     0.56775   0.07444   0.38018   0.00000  Uiso   1.00
H287   H     0.50674   0.12317   0.40775   0.00000  Uiso   1.00
H288   H     0.32826   0.41002   0.04472   0.00000  Uiso   1.00
H289   H     0.44749   0.43564   0.08692   0.00000  Uiso   1.00
H290   H     0.40502   0.35973   0.01565   0.00000  Uiso   1.00
H291   H     0.57883   0.47678   0.92098   0.00000  Uiso   1.00
H292   H     0.60525   0.50316   1.01649   0.00000  Uiso   1.00
H293   H     0.62377   0.59343   0.95502   0.00000  Uiso   1.00
H294   H     0.43256   0.30528   0.34905   0.00000  Uiso   1.00
H295   H     0.33550   0.31420   0.36512   0.00000  Uiso   1.00
H296   H     0.33389   0.20751   0.37659   0.00000  Uiso   1.00
H297   H     0.54639   0.31394   0.55045   0.00000  Uiso   1.00
H298   H     0.57320   0.34662   0.45896   0.00000  Uiso   1.00
H299   H     0.50964   0.23107   0.48463   0.00000  Uiso   1.00
H300   H     0.40677   0.57662   0.51049   0.00000  Uiso   1.00
H301   H     0.33641   0.52039   0.43625   0.00000  Uiso   1.00
H302   H     0.43738   0.62714   0.41966   0.00000  Uiso   1.00
H303   H     0.58689   0.57361   0.55516   0.00000  Uiso   1.00
H304   H     0.64723   0.61725   0.47551   0.00000  Uiso   1.00
H305   H     0.61900   0.49954   0.51381   0.00000  Uiso   1.00
H306   H     0.53364   0.46782   0.34591   0.00000  Uiso   1.00
H307   H     0.53899   0.58458   0.34398   0.00000  Uiso   1.00
H308   H     0.42967   0.47830   0.32305   0.00000  Uiso   1.00
H309   H     0.33075   0.21137   0.77179   0.00000  Uiso   1.00
H310   H     0.35334   0.31863   0.79373   0.00000  Uiso   1.00
H311   H     0.40546   0.24863   0.84399   0.00000  Uiso   1.00
H312   H     0.47548   0.44596   0.67910   0.00000  Uiso   1.00
H313   H     0.39395   0.34658   0.63309   0.00000  Uiso   1.00
H314   H     0.51821   0.39696   0.62486   0.00000  Uiso   1.00
H315   H     0.57272   0.45557   0.79675   0.00000  Uiso   1.00
H316   H     0.64880   0.41246   0.77277   0.00000  Uiso   1.00
H317   H     0.56970   0.35972   0.83876   0.00000  Uiso   1.00
H318   H     0.25612   0.51400   0.94261   0.00000  Uiso   1.00
H319   H     0.20502   0.53585   0.86879   0.00000  Uiso   1.00
H320   H     0.31354   0.62555   0.89923   0.00000  Uiso   1.00
H321   H     0.34951   0.64273   0.16476   0.00000  Uiso   1.00
H322   H     0.35723   0.72941   0.20739   0.00000  Uiso   1.00
H323   H     0.42203   0.66096   0.24003   0.00000  Uiso   1.00
H324   H     0.52903   0.64019   0.04607   0.00000  Uiso   1.00
H325   H     0.41041   0.59221   0.03045   0.00000  Uiso   1.00
H326   H     0.47260   0.65349  -0.03942   0.00000  Uiso   1.00
H327   H     0.64718   0.74525   0.11022   0.00000  Uiso   1.00
H328   H     0.55836   0.66352   0.16861   0.00000  Uiso   1.00
H329   H     0.63916   0.77211   0.19765   0.00000  Uiso   1.00
H330   H     0.60521   0.93008   0.14224   0.00000  Uiso   1.00
H331   H     0.59160   0.88894   0.23352   0.00000  Uiso   1.00
H332   H     0.49421   0.89904   0.18006   0.00000  Uiso   1.00
H333   H     0.63892   0.99864   0.01087   0.00000  Uiso   1.00
H334   H     0.52720   0.98930   0.03750   0.00000  Uiso   1.00
H335   H     0.54364   0.99888  -0.05335   0.00000  Uiso   1.00
H336   H     0.40703   0.77739   0.36549   0.00000  Uiso   1.00
H337   H     0.50492   0.78857   0.31532   0.00000  Uiso   1.00
H338   H     0.47358   0.87606   0.30712   0.00000  Uiso   1.00
H339   H     0.52035   0.73902   0.48766   0.00000  Uiso   1.00
H340   H     0.63454   0.80668   0.51584   0.00000  Uiso   1.00
H341   H     0.60608   0.75671   0.41782   0.00000  Uiso   1.00
H342   H     0.72122   0.94903   0.36189   0.00000  Uiso   1.00
H343   H     0.72628   1.00640   0.43484   0.00000  Uiso   1.00
H344   H     0.66961   1.02644   0.35323   0.00000  Uiso   1.00
H345   H     0.52430   0.68060   0.66677   0.00000  Uiso   1.00
H346   H     0.56676   0.61098   0.72769   0.00000  Uiso   1.00
H347   H     0.63541   0.73000   0.71862   0.00000  Uiso   1.00
H348   H     0.61018   0.96917   0.64297   0.00000  Uiso   1.00
H349   H     0.55756   0.86343   0.60801   0.00000  Uiso   1.00
H350   H     0.62129   0.87725   0.68809   0.00000  Uiso   1.00
H351   H     0.90763   0.10234   0.12812   0.00000  Uiso   1.00
H352   H     0.97687   0.13498   0.04773   0.00000  Uiso   1.00
H353   H     0.98271   0.05197   0.10764   0.00000  Uiso   1.00
H354   H     0.78290   0.86971   0.10718   0.00000  Uiso   1.00
H355   H     0.68845   0.89278   0.06667   0.00000  Uiso   1.00
H356   H     0.75699   0.95189   0.13606   0.00000  Uiso   1.00
H357   H     0.64389   0.07197   0.15022   0.00000  Uiso   1.00
H358   H     0.73112   0.04909   0.19625   0.00000  Uiso   1.00
H359   H     0.74019   0.08644   0.10528   0.00000  Uiso   1.00
H360   H     0.90332   0.17429   0.22732   0.00000  Uiso   1.00
H361   H     0.90774   0.27314   0.26601   0.00000  Uiso   1.00
H362   H     0.95453   0.27620   0.17918   0.00000  Uiso   1.00
H363   H     0.66105   0.16329   0.27123   0.00000  Uiso   1.00
H364   H     0.64222   0.22690   0.20091   0.00000  Uiso   1.00
H365   H     0.73000   0.28039   0.27194   0.00000  Uiso   1.00
H366   H     0.79351  -0.07398   0.67526   0.00000  Uiso   1.00
H367   H     0.74847  -0.16750   0.60850   0.00000  Uiso   1.00
H368   H     0.73528  -0.06117   0.59794   0.00000  Uiso   1.00
H369   H     1.04061   1.00285   0.61825   0.00000  Uiso   1.00
H370   H     0.96200   0.88655   0.63444   0.00000  Uiso   1.00
H371   H     0.95923   0.97211   0.68291   0.00000  Uiso   1.00
H372   H     0.79994   0.90455   0.46332   0.00000  Uiso   1.00
H373   H     0.87624   0.86112   0.49867   0.00000  Uiso   1.00
H374   H     0.92064   0.96895   0.45122   0.00000  Uiso   1.00
H375   H     0.82880   0.10621   0.77271   0.00000  Uiso   1.00
H376   H     0.77414   0.04265   0.69759   0.00000  Uiso   1.00
H377   H     0.71009   0.08337   0.74820   0.00000  Uiso   1.00
H378   H     0.94809   0.63092  -0.04249   0.00000  Uiso   1.00
H379   H     0.92772   0.56688   0.03900   0.00000  Uiso   1.00
H380   H     0.82356   0.56188   0.00001   0.00000  Uiso   1.00
H381   H     0.71708   0.36814   0.88509   0.00000  Uiso   1.00
H382   H     0.76384   0.48199   0.84356   0.00000  Uiso   1.00
H383   H     0.70647   0.45458   0.92901   0.00000  Uiso   1.00
H384   H     0.83888   0.21852   0.47598   0.00000  Uiso   1.00
H385   H     0.80573   0.25300   0.38213   0.00000  Uiso   1.00
H386   H     0.72690   0.15322   0.43981   0.00000  Uiso   1.00
H387   H     0.88777   0.35448   0.54694   0.00000  Uiso   1.00
H388   H     0.81419   0.40549   0.55345   0.00000  Uiso   1.00
H389   H     0.89131   0.43752   0.48025   0.00000  Uiso   1.00
H390   H     1.01689   0.54012   0.20313   0.00000  Uiso   1.00
H391   H     0.97630   0.42365   0.22157   0.00000  Uiso   1.00
H392   H     0.90262   0.45967   0.16478   0.00000  Uiso   1.00
H393   H     0.86357   0.50438   0.26480   0.00000  Uiso   1.00
H394   H     0.88176   0.41833   0.31199   0.00000  Uiso   1.00
H395   H     0.91703   0.50807   0.35261   0.00000  Uiso   1.00
H396   H     0.66255   0.48288   0.26101   0.00000  Uiso   1.00
H397   H     0.57753   0.36748   0.28838   0.00000  Uiso   1.00
H398   H     0.67844   0.38868   0.23808   0.00000  Uiso   1.00
H399   H     0.76142   0.52062   0.45369   0.00000  Uiso   1.00
H400   H     0.67954   0.53548   0.39375   0.00000  Uiso   1.00
H401   H     0.80883   0.58556   0.37640   0.00000  Uiso   1.00
H402   H     0.98989   0.59323   0.66140   0.00000  Uiso   1.00
H403   H     0.90933   0.55753   0.58827   0.00000  Uiso   1.00
H404   H     0.93372   0.47611   0.64380   0.00000  Uiso   1.00
H405   H     0.75906   0.55795   0.60087   0.00000  Uiso   1.00
H406   H     0.68065   0.53230   0.67729   0.00000  Uiso   1.00
H407   H     0.68401   0.44061   0.63319   0.00000  Uiso   1.00
H408   H     0.85987   0.71091  -0.01079   0.00000  Uiso   1.00
H409   H     0.76202   0.71050   0.03614   0.00000  Uiso   1.00
H410   H     0.87984   0.78789   0.06201   0.00000  Uiso   1.00
H411   H     0.77090   0.62582   0.88334   0.00000  Uiso   1.00
H412   H     0.69096   0.58786   0.80340   0.00000  Uiso   1.00
H413   H     0.74444   0.70113   0.83378   0.00000  Uiso   1.00
H414   H     0.86324   0.72631   0.64387   0.00000  Uiso   1.00
H415   H     0.84230   0.79894   0.70476   0.00000  Uiso   1.00
H416   H     0.74656   0.69285   0.68111   0.00000  Uiso   1.00
H417   H     0.73804   0.92345   0.78571   0.00000  Uiso   1.00
H418   H     0.72445   0.97927   0.85452   0.00000  Uiso   1.00
H419   H     0.62683   0.92442   0.79515   0.00000  Uiso   1.00
loop_
_geom_bond_atom_site_label_1
_geom_bond_atom_site_label_2
_geom_bond_distance
_geom_bond_site_symmetry_2
_ccdc_geom_bond_type
Si1    C52     1.909   .     S
Si1    C54     1.897   .     S
Si1    C53     1.907   1_545 S
Si1    O81     1.593   1_545 S
Si2    C55     1.855   .     S
Si2    C56     1.808   .     S
Si2    C57     1.818   1_554 S
Si2    O62     1.551   1_554 S
Si3    C58     1.839   .     S
Si3    O98     1.581   .     S
Si3    C59     1.881   1_545 S
Si3    C60     1.887   1_545 S
Si4    O64     1.639   .     S
Si4    O67     1.558   .     S
Si4    O149    1.574   1_455 S
Si4    O157    1.649   1_455 S
Si5    C61     1.892   .     S
Si5    O65     1.589   .     S
Si5    O90     1.615   1_545 S
Si5    O93     1.589   1_545 S
Si6    O62     1.626   .     S
Si6    O71     1.639   .     S
Si6    C63     1.854   1_455 S
Si6    O146    1.600   1_455 S
Si7    O64     1.621   .     S
Si7    O65     1.574   .     S
Si7    O72     1.576   .     S
Si7    O99     1.635   .     S
Si8    C66     1.845   .     S
Si8    O77     1.627   .     S
Si8    O162    1.572   1_455 S
Si8    C170    1.872   1_455 S
Si9    O67     1.613   .     S
Si9    C68     1.919   .     S
Si9    C69     1.884   .     S
Si9    C70     1.923   .     S
Si10   O71     1.674   .     S
Si10   O72     1.601   .     S
Si10   O75     1.550   .     S
Si10   O115    1.629   .     S
Si11   C73     1.869   .     S
Si11   C85     1.831   .     S
Si11   O163    1.556   1_455 S
Si11   O177    1.589   1_455 S
Si12   C74     1.852   .     S
Si12   O75     1.586   .     S
Si12   C76     1.839   .     S
Si12   C87     1.813   .     S
Si13   O77     1.554   .     S
Si13   C78     1.793   .     S
Si13   C79     1.847   .     S
Si13   O80     1.602   .     S
Si14   O80     1.651   .     S
Si14   O81     1.622   .     S
Si14   O89     1.682   1_554 S
Si14   O136    1.649   1_554 S
Si15   C82     1.858   .     S
Si15   C83     1.856   .     S
Si15   C84     1.861   .     S
Si15   O124    1.642   .     S
Si16   C86     1.964   .     S
Si16   C88     1.927   .     S
Si16   O92     1.617   .     S
Si16   O133    1.580   .     S
Si17   O89     1.680   .     S
Si17   O90     1.594   .     S
Si17   O181    1.661   1_455 S
Si17   O187    1.628   1_455 S
Si18   C91     1.815   .     S
Si18   O92     1.560   .     S
Si18   O93     1.622   .     S
Si18   O126    1.611   .     S
Si19   C94     1.861   .     S
Si19   C95     1.907   .     S
Si19   C96     1.865   1_554 S
Si19   O156    1.576   1_554 S
Si20   C97     1.894   .     S
Si20   O152    1.598   .     S
Si20   O125    1.656   1_545 S
Si20   O129    1.594   1_545 S
Si21   O98     1.624   .     S
Si21   O99     1.583   .     S
Si21   O100    1.626   .     S
Si21   O104    1.581   .     S
Si22   O101    1.634   .     S
Si22   O154    1.571   .     S
Si22   O135    1.623   1_545 S
Si22   O139    1.596   1_545 S
Si23   O100    1.676   .     S
Si23   O101    1.630   .     S
Si23   O112    1.581   .     S
Si23   O153    1.624   .     S
Si24   C102    1.801   .     S
Si24   C119    1.816   .     S
Si24   C103    1.848   1_554 S
Si24   O116    1.604   1_554 S
Si25   O104    1.602   .     S
Si25   C105    1.854   .     S
Si25   C106    1.828   .     S
Si25   O108    1.606   .     S
Si26   C107    1.820   .     S
Si26   O108    1.602   .     S
Si26   C109    1.908   .     S
Si26   C110    1.892   .     S
Si27   C111    1.810   .     S
Si27   O112    1.574   .     S
Si27   C113    1.809   .     S
Si27   C114    1.822   .     S
Si28   O115    1.658   .     S
Si28   O116    1.601   .     S
Si28   C117    1.819   .     S
Si28   O131    1.631   .     S
Si29   C118    1.930   .     S
Si29   C120    1.874   .     S
Si29   C121    1.895   .     S
Si29   O122    1.654   .     S
Si30   O122    1.608   .     S
Si30   C123    1.833   .     S
Si30   O134    1.629   1_554 S
Si30   O191    1.609   1_554 S
Si31   O124    1.591   .     S
Si31   O125    1.615   .     S
Si31   O126    1.619   .     S
Si31   O137    1.637   .     S
Si32   C127    1.899   .     S
Si32   C128    1.882   .     S
Si32   O129    1.604   .     S
Si32   C130    1.900   .     S
Si33   O131    1.570   .     S
Si33   C132    1.858   .     S
Si33   O138    1.648   .     S
Si33   O188    1.642   .     S
Si34   O133    1.557   .     S
Si34   O134    1.613   .     S
Si34   O135    1.623   .     S
Si34   O136    1.633   .     S
Si35   O137    1.573   .     S
Si35   O138    1.670   .     S
Si35   O139    1.608   .     S
Si35   C140    1.756   .     S
Si36   C141    1.878   .     S
Si36   O147    1.631   .     S
Si36   C142    1.848   1_545 S
Si36   O183    1.681   1_545 S
Si37   C143    1.862   .     S
Si37   C144    1.835   .     S
Si37   C145    1.846   .     S
Si37   O160    1.620   .     S
Si38   O147    1.595   .     S
Si38   O161    1.635   .     S
Si38   O146    1.652   1_554 S
Si38   O155    1.589   1_554 S
Si39   C148    1.796   .     S
Si39   O149    1.591   .     S
Si39   C150    1.771   1_545 S
Si39   C151    1.897   1_545 S
Si40   O152    1.610   .     S
Si40   O153    1.621   .     S
Si40   O158    1.561   .     S
Si40   O167    1.554   .     S
Si41   O154    1.603   .     S
Si41   O155    1.593   .     S
Si41   O156    1.603   .     S
Si41   O175    1.597   .     S
Si42   O157    1.635   .     S
Si42   O158    1.612   .     S
Si42   C159    1.833   .     S
Si42   O176    1.611   .     S
Si43   O160    1.614   .     S
Si43   O161    1.633   .     S
Si43   O162    1.598   .     S
Si43   O164    1.610   .     S
Si44   O164    1.539   .     S
Si44   C165    1.837   .     S
Si44   O163    1.571   1_554 S
Si44   C166    1.822   1_554 S
Si45   O167    1.598   .     S
Si45   C168    1.854   .     S
Si45   C169    1.850   .     S
Si45   O173    1.635   .     S
Si46   C171    1.882   .     S
Si46   C172    1.832   .     S
Si46   O173    1.599   .     S
Si46   C174    1.837   .     S
Si47   O175    1.613   .     S
Si47   O176    1.603   .     S
Si47   O177    1.599   .     S
Si47   O180    1.627   .     S
Si48   C178    1.832   .     S
Si48   C179    1.912   .     S
Si48   O180    1.615   .     S
Si48   O185    1.634   .     S
Si49   C182    1.880   .     S
Si49   O183    1.577   .     S
Si49   O181    1.604   1_554 S
Si49   O189    1.658   1_554 S
Si50   C184    1.858   .     S
Si50   O185    1.623   .     S
Si50   C186    1.835   .     S
Si50   O187    1.599   .     S
Si51   O188    1.589   .     S
Si51   O189    1.574   .     S
Si51   C190    1.875   .     S
Si51   O191    1.667   .     S
C52    H192    1.100   .     S
C52    H193    1.136   .     S
C52    H194    1.096   .     S
C53    H195    1.130   .     S
C53    H196    1.104   .     S
C53    H197    1.132   .     S
C53    Si1     1.907   1_565 S
C54    H198    1.138   .     S
C54    H199    1.134   .     S
C54    H200    1.089   .     S
C55    H201    1.089   .     S
C55    H202    1.110   .     S
C55    H203    1.124   .     S
C56    H204    1.096   .     S
C56    H205    1.123   .     S
C56    H206    1.114   .     S
C57    H207    1.061   .     S
C57    H208    1.162   .     S
C57    H209    1.133   .     S
C57    Si2     1.818   1_556 S
C58    H210    1.153   .     S
C58    H211    1.121   .     S
C58    H212    1.127   .     S
C59    H213    1.082   .     S
C59    H214    1.091   .     S
C59    H215    1.074   .     S
C59    Si3     1.881   1_565 S
C60    H216    1.098   .     S
C60    H217    1.153   .     S
C60    H218    1.130   .     S
C60    Si3     1.887   1_565 S
C61    H219    1.076   .     S
C61    H220    1.097   .     S
C61    H221    1.104   .     S
O62    Si2     1.551   1_556 S
C63    H222    1.125   .     S
C63    H223    1.136   .     S
C63    H224    1.115   .     S
C63    Si6     1.854   1_655 S
C66    H225    1.080   .     S
C66    H226    1.109   .     S
C66    H227    1.067   .     S
C68    H228    1.150   .     S
C68    H229    1.140   .     S
C68    H230    1.099   .     S
C69    H231    1.110   .     S
C69    H232    1.133   .     S
C69    H233    1.084   .     S
C70    H234    1.130   .     S
C70    H235    1.106   .     S
C70    H236    1.087   .     S
C73    H237    1.183   .     S
C73    H238    1.051   .     S
C73    H239    1.078   .     S
C74    H240    1.148   .     S
C74    H241    1.110   .     S
C74    H242    1.100   .     S
C76    H243    1.094   .     S
C76    H244    1.059   .     S
C76    H245    1.082   .     S
C78    H246    1.141   .     S
C78    H247    1.143   .     S
C78    H248    1.149   .     S
C79    H249    1.087   .     S
C79    H250    1.129   .     S
C79    H251    1.140   .     S
O81    Si1     1.593   1_565 S
C82    H252    1.087   .     S
C82    H253    1.094   .     S
C82    H254    1.121   .     S
C83    H255    1.109   .     S
C83    H256    1.124   .     S
C83    H257    1.092   .     S
C84    H258    1.039   .     S
C84    H259    1.087   .     S
C84    H260    1.088   .     S
C85    H261    1.064   .     S
C85    H262    1.115   .     S
C85    H263    1.100   .     S
C86    H264    1.156   .     S
C86    H265    1.119   .     S
C86    H266    1.054   .     S
C87    H267    1.034   .     S
C87    H268    1.139   .     S
C87    H269    1.062   .     S
C88    H270    1.130   .     S
C88    H271    1.117   .     S
C88    H272    1.140   .     S
O89    Si14    1.682   1_556 S
O90    Si5     1.615   1_565 S
C91    H273    1.107   .     S
C91    H274    1.034   .     S
C91    H275    1.087   .     S
O93    Si5     1.589   1_565 S
C94    H276    1.090   .     S
C94    H277    1.047   .     S
C94    H278    1.132   .     S
C95    H279    1.112   .     S
C95    H280    1.181   .     S
C95    H281    1.103   .     S
C96    H282    1.068   .     S
C96    H283    1.044   .     S
C96    H284    1.111   .     S
C96    Si19    1.865   1_556 S
C97    H285    1.135   .     S
C97    H286    1.112   .     S
C97    H287    1.071   .     S
C102   H288    1.087   .     S
C102   H289    1.134   .     S
C102   H290    1.130   .     S
C103   H291    1.136   .     S
C103   H292    1.125   .     S
C103   H293    1.126   .     S
C103   Si24    1.848   1_556 S
C105   H294    1.063   .     S
C105   H295    1.075   .     S
C105   H296    1.071   .     S
C106   H297    1.109   .     S
C106   H298    1.111   .     S
C106   H299    1.096   .     S
C107   H300    1.083   .     S
C107   H301    1.131   .     S
C107   H302    1.134   .     S
C109   H303    1.091   .     S
C109   H304    1.149   .     S
C109   H305    1.100   .     S
C110   H306    1.063   .     S
C110   H307    1.124   .     S
C110   H308    1.187   .     S
C111   H309    1.043   .     S
C111   H310    1.137   .     S
C111   H311    1.120   .     S
C113   H312    1.076   .     S
C113   H313    1.075   .     S
C113   H314    1.085   .     S
C114   H315    1.085   .     S
C114   H316    1.105   .     S
C114   H317    1.030   .     S
O116   Si24    1.604   1_556 S
C117   H318    1.062   .     S
C117   H319    1.094   .     S
C117   H320    1.111   .     S
C118   H321    1.048   .     S
C118   H322    1.113   .     S
C118   H323    1.155   .     S
C119   H324    1.117   .     S
C119   H325    1.047   .     S
C119   H326    1.065   .     S
C120   H327    1.132   .     S
C120   H328    1.084   .     S
C120   H329    1.105   .     S
C121   H330    1.085   .     S
C121   H331    1.128   .     S
C121   H332    1.058   .     S
C123   H333    1.131   .     S
C123   H334    1.109   .     S
C123   H335    1.086   .     S
O125   Si20    1.656   1_565 S
C127   H336    1.134   .     S
C127   H337    1.148   .     S
C127   H338    1.050   .     S
C128   H339    1.102   .     S
C128   H340    1.153   .     S
C128   H341    1.164   .     S
O129   Si20    1.594   1_565 S
C130   H342    1.126   .     S
C130   H343    1.095   .     S
C130   H344    1.126   .     S
C132   H345    1.081   .     S
C132   H346    1.167   .     S
C132   H347    1.101   .     S
O134   Si30    1.629   1_556 S
O135   Si22    1.623   1_565 S
O136   Si14    1.649   1_556 S
O139   Si22    1.596   1_565 S
C140   H348    1.115   .     S
C140   H349    1.053   .     S
C140   H350    1.092   .     S
C141   H351    1.174   .     S
C141   H352    1.087   .     S
C141   H353    1.068   .     S
C142   H354    1.102   .     S
C142   H355    1.015   .     S
C142   H356    1.122   .     S
C142   Si36    1.848   1_565 S
C143   H357    1.077   .     S
C143   H358    1.063   .     S
C143   H359    1.109   .     S
C144   H360    1.065   .     S
C144   H361    1.123   .     S
C144   H362    1.114   .     S
C145   H363    1.096   .     S
C145   H364    1.135   .     S
C145   H365    1.094   .     S
O146   Si6     1.600   1_655 S
O146   Si38    1.652   1_556 S
C148   H366    1.110   .     S
C148   H367    1.180   .     S
C148   H368    1.070   .     S
O149   Si4     1.574   1_655 S
C150   H369    1.108   .     S
C150   H370    1.101   .     S
C150   H371    1.086   .     S
C150   Si39    1.771   1_565 S
C151   H372    1.055   .     S
C151   H373    1.061   .     S
C151   H374    1.096   .     S
C151   Si39    1.897   1_565 S
O155   Si38    1.589   1_556 S
O156   Si19    1.576   1_556 S
O157   Si4     1.649   1_655 S
C159   H375    1.098   .     S
C159   H376    1.073   .     S
C159   H377    1.142   .     S
O162   Si8     1.572   1_655 S
O163   Si11    1.556   1_655 S
O163   Si44    1.571   1_556 S
C165   H378    1.181   .     S
C165   H379    1.069   .     S
C165   H380    1.124   .     S
C166   H381    1.105   .     S
C166   H382    1.110   .     S
C166   H383    1.069   .     S
C166   Si44    1.822   1_556 S
C168   H384    1.125   .     S
C168   H385    1.129   .     S
C168   H386    1.103   .     S
C169   H387    1.132   .     S
C169   H388    1.087   .     S
C169   H389    1.091   .     S
C170   H390    1.153   .     S
C170   H391    1.070   .     S
C170   H392    1.103   .     S
C170   Si8     1.872   1_655 S
C171   H393    1.128   .     S
C171   H394    1.086   .     S
C171   H395    1.069   .     S
C172   H396    1.103   .     S
C172   H397    1.125   .     S
C172   H398    1.104   .     S
C174   H399    1.086   .     S
C174   H400    1.121   .     S
C174   H401    1.071   .     S
O177   Si11    1.589   1_655 S
C178   H402    1.105   .     S
C178   H403    1.135   .     S
C178   H404    1.073   .     S
C179   H405    1.148   .     S
C179   H406    1.130   .     S
C179   H407    1.116   .     S
O181   Si17    1.661   1_655 S
O181   Si49    1.604   1_556 S
C182   H408    1.156   .     S
C182   H409    1.103   .     S
C182   H410    1.141   .     S
O183   Si36    1.681   1_565 S
C184   H411    1.087   .     S
C184   H412    1.127   .     S
C184   H413    1.075   .     S
C186   H414    1.121   .     S
C186   H415    1.149   .     S
C186   H416    1.171   .     S
O187   Si17    1.628   1_655 S
O189   Si49    1.658   1_556 S
C190   H417    1.113   .     S
C190   H418    1.115   .     S
C190   H419    1.074   .     S
O191   Si30    1.609   1_556 S
