data_333-15-11-10-15-30-5
_audit_creation_date              2025-03-07
_audit_creation_method            'Materials Studio'
_symmetry_space_group_name_H-M    'P1'
_symmetry_Int_Tables_number       1
_symmetry_cell_setting            triclinic
loop_
_symmetry_equiv_pos_as_xyz
  x,y,z
_cell_length_a                    17.5109
_cell_length_b                    15.9599
_cell_length_c                    18.4561
_cell_angle_alpha                 88.9741
_cell_angle_beta                  91.5911
_cell_angle_gamma                 121.7904
loop_
_atom_site_label
_atom_site_type_symbol
_atom_site_fract_x
_atom_site_fract_y
_atom_site_fract_z
_atom_site_U_iso_or_equiv
_atom_site_adp_type
_atom_site_occupancy
Si1    Si    0.22915  -0.00872   0.10902   0.00000  Uiso   1.00
Si2    Si    0.21195   0.12987   0.00305   0.00000  Uiso   1.00
Si3    Si    0.23601   0.04868   0.46433   0.00000  Uiso   1.00
Si4    Si   -0.10278   0.15787   0.61121   0.00000  Uiso   1.00
Si5    Si    0.24784   0.18174   0.32965   0.00000  Uiso   1.00
Si6    Si    0.19010  -0.01080   0.78603   0.00000  Uiso   1.00
Si7    Si    0.14901   0.23134   0.10616   0.00000  Uiso   1.00
Si8    Si   -0.02840   0.47084   0.81822   0.00000  Uiso   1.00
Si9    Si    0.18100   0.55530   0.64156   0.00000  Uiso   1.00
Si10   Si    0.05635   0.84351   0.17918   0.00000  Uiso   1.00
Si11   Si    0.18963   0.85289  -0.02140   0.00000  Uiso   1.00
Si12   Si    0.21400   0.69427   0.43959   0.00000  Uiso   1.00
Si13   Si    0.07496   0.90661   0.55891   0.00000  Uiso   1.00
Si14   Si    0.14414   0.66725   0.75144   0.00000  Uiso   1.00
Si15   Si    0.04045   0.84092   0.88016   0.00000  Uiso   1.00
Si16   Si    0.18822   0.85643   0.66424   0.00000  Uiso   1.00
Si17   Si    0.54414   0.06585   0.09611   0.00000  Uiso   1.00
Si18   Si    0.35351   0.12013   0.23007   0.00000  Uiso   1.00
Si19   Si    0.49159   0.16854  -0.01610   0.00000  Uiso   1.00
Si20   Si    0.46284   0.01536   0.48484   0.00000  Uiso   1.00
Si21   Si    0.36937   0.19586   0.56917   0.00000  Uiso   1.00
Si22   Si    0.48085   0.14455   0.35613   0.00000  Uiso   1.00
Si23   Si    0.46676  -0.00400   0.76677   0.00000  Uiso   1.00
Si24   Si    0.33289   0.14674   0.88587   0.00000  Uiso   1.00
Si25   Si    0.48248   0.17805   0.68480   0.00000  Uiso   1.00
Si26   Si    0.48236   0.28792   0.11556   0.00000  Uiso   1.00
Si27   Si    0.42562   0.41587   0.03481   0.00000  Uiso   1.00
Si28   Si    0.73732   0.55896   0.31848   0.00000  Uiso   1.00
Si29   Si    0.47160   0.32050   0.78805   0.00000  Uiso   1.00
Si30   Si    0.26904   0.39273   0.93906   0.00000  Uiso   1.00
Si31   Si    0.49132   0.51293   0.70740   0.00000  Uiso   1.00
Si32   Si    0.48068   0.58252   0.14598   0.00000  Uiso   1.00
Si33   Si    0.41864   0.80194  -0.04329   0.00000  Uiso   1.00
Si34   Si    0.54403   0.72464   0.43175   0.00000  Uiso   1.00
Si35   Si    0.31738   0.84122   0.56817   0.00000  Uiso   1.00
Si36   Si    0.47586   0.68783   0.75185   0.00000  Uiso   1.00
Si37   Si    0.29286   0.82779   0.85840   0.00000  Uiso   1.00
Si38   Si    0.47930   0.85165   0.65381   0.00000  Uiso   1.00
Si39   Si    0.78216   0.00820   0.20443   0.00000  Uiso   1.00
Si40   Si    0.60616   0.14569   0.59660   0.00000  Uiso   1.00
Si41   Si    0.62041   0.17643   0.86607   0.00000  Uiso   1.00
Si42   Si    0.73740   0.13104   0.69248   0.00000  Uiso   1.00
Si43   Si    0.67760   0.45996   0.17139   0.00000  Uiso   1.00
Si44   Si    0.74515   0.49425  -0.05729   0.00000  Uiso   1.00
Si45   Si    0.68717   0.59685   0.68517   0.00000  Uiso   1.00
Si46   Si    0.83905   0.43338   0.17195   0.00000  Uiso   1.00
Si47   Si    0.77343   0.32137   0.75922   0.00000  Uiso   1.00
Si48   Si    0.56156   0.45325   0.91729   0.00000  Uiso   1.00
Si49   Si    0.76519   0.46772   0.65767   0.00000  Uiso   1.00
Si50   Si    0.79060   0.92299   0.06107   0.00000  Uiso   1.00
Si51   Si    0.62225   0.87542   0.55091   0.00000  Uiso   1.00
O52    O     0.24876   0.08666   0.06339   0.00000  Uiso   1.00
C53    C     0.10150   0.04118   0.97074   0.00000  Uiso   1.00
C54    C     0.22669   0.94156   0.41738   0.00000  Uiso   1.00
C55    C    -0.04322   0.14898   0.69136   0.00000  Uiso   1.00
C56    C    -0.05442   0.28380   0.57264   0.00000  Uiso   1.00
C57    C     0.91281   0.09231   0.53525   0.00000  Uiso   1.00
C58    C     0.13635   0.17284   0.32058   0.00000  Uiso   1.00
O59    O     0.23436   0.12248   0.40407   0.00000  Uiso   1.00
C60    C     0.32911   0.31939   0.34556   0.00000  Uiso   1.00
C61    C     0.19047   0.09465   0.73970   0.00000  Uiso   1.00
C62    C     0.07456   0.11053   0.15120   0.00000  Uiso   1.00
O63    O     0.19727   0.21149   0.03896   0.00000  Uiso   1.00
C64    C     0.08445   0.28354   0.07231   0.00000  Uiso   1.00
C65    C     0.24129   0.32276   0.16579   0.00000  Uiso   1.00
C66    C     0.00861   0.37800   0.80993   0.00000  Uiso   1.00
C67    C     0.09193   0.54567   0.57879   0.00000  Uiso   1.00
C68    C     0.14290   0.42698   0.66920   0.00000  Uiso   1.00
C69    C     0.29094   0.58858   0.60124   0.00000  Uiso   1.00
C70    C     0.11611   0.78377   0.21119   0.00000  Uiso   1.00
O71    O     0.12963   0.94259   0.13966   0.00000  Uiso   1.00
C72    C     1.01001   0.88034   0.25751   0.00000  Uiso   1.00
C73    C     0.97092   0.77801   0.10409   0.00000  Uiso   1.00
C74    C     0.14511   0.71981   0.00698   0.00000  Uiso   1.00
O75    O     0.23618   0.92226   0.04966   0.00000  Uiso   1.00
C76    C     0.09531   0.65297   0.41546   0.00000  Uiso   1.00
C77    C     0.23231   0.58996   0.43180   0.00000  Uiso   1.00
C78    C     0.27043   0.77196   0.35304   0.00000  Uiso   1.00
O79    O     0.14990   1.00230   0.51571   0.00000  Uiso   1.00
C80    C     1.01087   0.93331   0.62390   0.00000  Uiso   1.00
C81    C     0.99321   0.81411   0.49107   0.00000  Uiso   1.00
O82    O     0.04245   0.57058   0.77177   0.00000  Uiso   1.00
O83    O     0.19765   0.62800   0.70948   0.00000  Uiso   1.00
O84    O     0.10387   0.85865   0.95000   0.00000  Uiso   1.00
O85    O     0.09701   0.91868   0.81983   0.00000  Uiso   1.00
C86    C     1.00171   0.72007   0.84463   0.00000  Uiso   1.00
O87    O     0.12106   0.85554   0.60239   0.00000  Uiso   1.00
O88    O     0.13514   0.74478   0.70012   0.00000  Uiso   1.00
O89    O     0.21744   0.93621   0.72971   0.00000  Uiso   1.00
C90    C     0.63387   0.19315   0.12793   0.00000  Uiso   1.00
C91    C     0.46791   0.99903   0.17376   0.00000  Uiso   1.00
O92    O     0.29464   0.02209   0.17976   0.00000  Uiso   1.00
O93    O     0.28296   0.15004   0.25988   0.00000  Uiso   1.00
O94    O     0.49079   0.08048   0.02762   0.00000  Uiso   1.00
C95    C     0.51007   0.95805   0.42976   0.00000  Uiso   1.00
O96    O     0.32596   0.11431   0.51167   0.00000  Uiso   1.00
C97    C     0.47775   0.30285   0.53189   0.00000  Uiso   1.00
C98    C     0.29585   0.24448   0.59014   0.00000  Uiso   1.00
O99    O     0.39991   0.09836   0.30057   0.00000  Uiso   1.00
O100   O     0.45386   0.09063   0.43294   0.00000  Uiso   1.00
C101   C     0.51710   0.27296   0.36616   0.00000  Uiso   1.00
C102   C     0.58113   0.14544   0.32635   0.00000  Uiso   1.00
O103   O     0.25823   0.04002   0.84852   0.00000  Uiso   1.00
O104   O     0.40171   0.13114   0.93659   0.00000  Uiso   1.00
O105   O     0.27753   0.17048   0.93801   0.00000  Uiso   1.00
O106   O     0.39748   0.16294   0.63857   0.00000  Uiso   1.00
O107   O     0.45171   0.07063   0.71789   0.00000  Uiso   1.00
O108   O     0.42947   0.20183   0.17738   0.00000  Uiso   1.00
O109   O     0.49939   0.24908   0.04151   0.00000  Uiso   1.00
O110   O     0.42141   0.33492   0.09084   0.00000  Uiso   1.00
C111   C     0.65030   0.52134   0.38756   0.00000  Uiso   1.00
C112   C     0.82998   0.56500   0.37560   0.00000  Uiso   1.00
O113   O     0.37896   0.23209   0.82543   0.00000  Uiso   1.00
O114   O     0.50998   0.26705   0.74182   0.00000  Uiso   1.00
C115   C     0.18001   0.28387   0.88822   0.00000  Uiso   1.00
O116   O     0.32657   0.38644   1.00717   0.00000  Uiso   1.00
C117   C     0.21442   0.46215   0.96754   0.00000  Uiso   1.00
C118   C     0.45061   0.49819   0.60999   0.00000  Uiso   1.00
O119   O     0.45320   0.39766   0.74334   0.00000  Uiso   1.00
C120   C     0.49637   0.52754   0.22942   0.00000  Uiso   1.00
O121   O     0.47824   0.52285   0.07517   0.00000  Uiso   1.00
C122   C     0.57174   0.71488   0.15132   0.00000  Uiso   1.00
C123   C     0.37207   0.58476   0.15045   0.00000  Uiso   1.00
C124   C     0.43184   0.69781  -0.01180   0.00000  Uiso   1.00
C125   C     0.38176   0.83119   0.03989   0.00000  Uiso   1.00
C126   C     0.60887   1.01217   0.07497   0.00000  Uiso   1.00
C127   C     0.52228   0.90114   0.91617   0.00000  Uiso   1.00
C128   C     0.49104   0.59017   0.44360   0.00000  Uiso   1.00
C129   C     0.77761   0.68945   0.28827   0.00000  Uiso   1.00
C130   C     0.65485   0.76987   0.39279   0.00000  Uiso   1.00
C131   C     0.46707   0.73836   0.36429   0.00000  Uiso   1.00
O132   O     0.25219   0.74698   0.51838   0.00000  Uiso   1.00
O133   O     0.36884   0.93480   0.51592   0.00000  Uiso   1.00
O134   O     0.27276   0.87115   0.62593   0.00000  Uiso   1.00
C135   C     0.34602   0.46114   0.86887   0.00000  Uiso   1.00
C136   C     0.37147   0.66643   0.79378   0.00000  Uiso   1.00
O137   O     0.45319   0.57823   0.73466   0.00000  Uiso   1.00
C138   C     0.58248   0.76497   0.80582   0.00000  Uiso   1.00
O139   O     0.20329   0.73798   0.81785   0.00000  Uiso   1.00
O140   O     0.33813   0.77959   0.90076   0.00000  Uiso   1.00
O141   O     0.36765   0.91365   0.80293   0.00000  Uiso   1.00
O142   O     0.25873   0.87502   0.91398   0.00000  Uiso   1.00
O143   O     0.38868   0.82057   0.61397   0.00000  Uiso   1.00
O144   O     0.47561   0.75381   0.68451   0.00000  Uiso   1.00
O145   O     0.49936   0.93740   0.71524   0.00000  Uiso   1.00
C146   C     0.85586   0.14451   0.19649   0.00000  Uiso   1.00
C147   C     0.84717  -0.03385   0.25658   0.00000  Uiso   1.00
C148   C     0.67802   0.98060   0.24691   0.00000  Uiso   1.00
O149   O     0.52813   0.06166   0.55295   0.00000  Uiso   1.00
C150   C     0.69252   0.22347   0.52880   0.00000  Uiso   1.00
O151   O     0.56629   0.20382   0.63491   0.00000  Uiso   1.00
O152   O     0.54386   0.07054   0.82525   0.00000  Uiso   1.00
C153   C     0.70146   0.15552   0.91580   0.00000  Uiso   1.00
O154   O     0.57363   0.20878   0.92754   0.00000  Uiso   1.00
O155   O     0.79616   0.12043   0.63044   0.00000  Uiso   1.00
O156   O     0.64472   0.10525   0.65646   0.00000  Uiso   1.00
C157   C     0.71795   0.03964   0.76644   0.00000  Uiso   1.00
O158   O     0.57717   0.37598   0.15089   0.00000  Uiso   1.00
C159   C     0.69392   0.57561   0.12609   0.00000  Uiso   1.00
O160   O     0.69607   0.48125   0.25557   0.00000  Uiso   1.00
C161   C     0.99359   0.50101   0.91962   0.00000  Uiso   1.00
C162   C     0.76201   0.52921   0.84472   0.00000  Uiso   1.00
C163   C     0.76319   0.39335  -0.03246   0.00000  Uiso   1.00
C164   C     0.82582   0.60324  -0.00371   0.00000  Uiso   1.00
C165   C     0.67539   0.63071   0.58855   0.00000  Uiso   1.00
C166   C     0.77861   0.70944   0.73220   0.00000  Uiso   1.00
O167   O     0.59645   0.57375   0.71716   0.00000  Uiso   1.00
C168   C     0.87887   0.36873   0.11366   0.00000  Uiso   1.00
O169   O     0.75332   0.43938   0.14490   0.00000  Uiso   1.00
C170   C     0.80868   0.36111   0.25883   0.00000  Uiso   1.00
C171   C     0.93812   0.56060   0.18531   0.00000  Uiso   1.00
O172   O     0.68820   0.26923   0.81368   0.00000  Uiso   1.00
O173   O     0.78403   0.23895   0.72781   0.00000  Uiso   1.00
O174   O     0.86604   0.41308   0.79946   0.00000  Uiso   1.00
O175   O     0.54167   0.38417   0.85117   0.00000  Uiso   1.00
O176   O     0.64394   0.45810   0.95898   0.00000  Uiso   1.00
C177   C     0.60239   0.58778   0.89653   0.00000  Uiso   1.00
O178   O     0.47523   0.40694   0.96613   0.00000  Uiso   1.00
C179   C     0.74988   0.45196   0.55774   0.00000  Uiso   1.00
O180   O     0.70083   0.50472   0.68718   0.00000  Uiso   1.00
O181   O     0.74671   0.36869   0.69437   0.00000  Uiso   1.00
C182   C     0.88426   0.56356   0.66983   0.00000  Uiso   1.00
C183   C     0.93558   0.84433   0.89897   0.00000  Uiso   1.00
C184   C     0.82827   0.84396   1.10128   0.00000  Uiso   1.00
C185   C     0.69642   0.84101  -0.00391   0.00000  Uiso   1.00
O186   O     0.75576   0.95981   0.12478   0.00000  Uiso   1.00
C187   C     0.87275   1.03150   1.00105   0.00000  Uiso   1.00
O188   O     0.55724   0.77782   0.50628   0.00000  Uiso   1.00
C189   C     0.69587   0.85536   0.61125   0.00000  Uiso   1.00
C190   C     0.69833   0.97419   0.48875   0.00000  Uiso   1.00
O191   O     0.56113   0.90067   0.59776   0.00000  Uiso   1.00
H192   H     0.07177  -0.02295   1.00595   0.00000  Uiso   1.00
H193   H     0.10416   0.02674   0.91318   0.00000  Uiso   1.00
H194   H     0.06256   0.07765   0.97468   0.00000  Uiso   1.00
H195   H     0.28928   0.96788   0.38611   0.00000  Uiso   1.00
H196   H     0.16925   0.90925   0.38180   0.00000  Uiso   1.00
H197   H     0.21813   0.89027   0.46285   0.00000  Uiso   1.00
H198   H     0.02854   0.18507   0.68779   0.00000  Uiso   1.00
H199   H    -0.06883   0.06894   0.70343   0.00000  Uiso   1.00
H200   H    -0.05849   0.17335   0.74185   0.00000  Uiso   1.00
H201   H    -0.07081   0.32823   0.60851   0.00000  Uiso   1.00
H202   H    -0.09333   0.27103   0.51782   0.00000  Uiso   1.00
H203   H     0.01961   0.32290   0.56205   0.00000  Uiso   1.00
H204   H     0.98395   0.11538   0.52742   0.00000  Uiso   1.00
H205   H     0.88820   0.10970   0.48333   0.00000  Uiso   1.00
H206   H     0.87517   0.01275   0.54637   0.00000  Uiso   1.00
H207   H     0.12022   0.18716   0.37395   0.00000  Uiso   1.00
H208   H     0.08377   0.09325   0.31618   0.00000  Uiso   1.00
H209   H     0.12735   0.21562   0.27866   0.00000  Uiso   1.00
H210   H     0.34906   0.34722   0.40479   0.00000  Uiso   1.00
H211   H     0.30284   0.35804   0.31173   0.00000  Uiso   1.00
H212   H     0.39459   0.33854   0.32234   0.00000  Uiso   1.00
H213   H     0.15909   0.12636   0.77291   0.00000  Uiso   1.00
H214   H     0.15713   0.07207   0.68459   0.00000  Uiso   1.00
H215   H     0.26134   0.15516   0.72537   0.00000  Uiso   1.00
H216   H     0.12304   0.09401   0.17973   0.00000  Uiso   1.00
H217   H     0.04011   0.05670   0.10868   0.00000  Uiso   1.00
H218   H     0.03654   0.12292   0.18887   0.00000  Uiso   1.00
H219   H     0.01438   0.23289   0.08619   0.00000  Uiso   1.00
H220   H     0.08315   0.28327   0.01377   0.00000  Uiso   1.00
H221   H     0.11341   0.35945   0.09501   0.00000  Uiso   1.00
H222   H     0.27597   0.28694   0.18730   0.00000  Uiso   1.00
H223   H     0.20562   0.34503   0.20426   0.00000  Uiso   1.00
H224   H     0.28698   0.39047   0.13564   0.00000  Uiso   1.00
H225   H    -0.02079   0.33677   0.76013   0.00000  Uiso   1.00
H226   H    -0.02591   0.32143   0.85670   0.00000  Uiso   1.00
H227   H     0.07755   0.40921   0.81920   0.00000  Uiso   1.00
H228   H     0.03331   0.50295   0.61514   0.00000  Uiso   1.00
H229   H     0.08703   0.49940   0.53070   0.00000  Uiso   1.00
H230   H     0.10273   0.61799   0.56962   0.00000  Uiso   1.00
H231   H     0.15897   0.39669   0.62655   0.00000  Uiso   1.00
H232   H     0.06853   0.39254   0.68038   0.00000  Uiso   1.00
H233   H     0.17180   0.40915   0.71748   0.00000  Uiso   1.00
H234   H     0.27191   0.52468   0.56003   0.00000  Uiso   1.00
H235   H     0.33201   0.58019   0.64360   0.00000  Uiso   1.00
H236   H     0.32735   0.65995   0.57456   0.00000  Uiso   1.00
H237   H     0.12720   0.74483   0.16456   0.00000  Uiso   1.00
H238   H     0.08419   0.73274   0.25939   0.00000  Uiso   1.00
H239   H     0.17968   0.84401   0.22976   0.00000  Uiso   1.00
H240   H     0.99509   0.82084   0.29694   0.00000  Uiso   1.00
H241   H     0.94799   0.87119   0.23519   0.00000  Uiso   1.00
H242   H     1.05732   0.95786   0.27419   0.00000  Uiso   1.00
H243   H     1.00079   0.74871   0.06823   0.00000  Uiso   1.00
H244   H     0.96434   0.83263   0.06935   0.00000  Uiso   1.00
H245   H     0.90375   0.71757   0.12250   0.00000  Uiso   1.00
H246   H     0.16052   0.71179   0.06328   0.00000  Uiso   1.00
H247   H     0.17348   0.68650  -0.02718   0.00000  Uiso   1.00
H248   H     0.06975   0.68385   0.00456   0.00000  Uiso   1.00
H249   H     0.07640   0.70771   0.42876   0.00000  Uiso   1.00
H250   H     0.04568   0.57671   0.44150   0.00000  Uiso   1.00
H251   H     0.08803   0.64442   0.35503   0.00000  Uiso   1.00
H252   H     0.19079   0.53036   0.46834   0.00000  Uiso   1.00
H253   H     0.30188   0.60716   0.44377   0.00000  Uiso   1.00
H254   H     0.21103   0.56399   0.37298   0.00000  Uiso   1.00
H255   H     0.26948   0.72645   0.31147   0.00000  Uiso   1.00
H256   H     0.34249   0.83910   0.36161   0.00000  Uiso   1.00
H257   H     0.23484   0.80236   0.32560   0.00000  Uiso   1.00
H258   H     1.00809   0.90557   0.67903   0.00000  Uiso   1.00
H259   H     0.93942   0.89002   0.60398   0.00000  Uiso   1.00
H260   H     1.03680   1.01066   0.62349   0.00000  Uiso   1.00
H261   H     0.97776   0.73728   0.50589   0.00000  Uiso   1.00
H262   H     1.02190   0.82651   0.43619   0.00000  Uiso   1.00
H263   H     0.93005   0.81399   0.48913   0.00000  Uiso   1.00
H264   H     1.04343   0.68913   0.85964   0.00000  Uiso   1.00
H265   H     1.00168   0.72263   0.78552   0.00000  Uiso   1.00
H266   H     0.93296   0.66818   0.86135   0.00000  Uiso   1.00
H267   H     0.66169   0.23233   0.08141   0.00000  Uiso   1.00
H268   H     0.68382   0.18596   0.15800   0.00000  Uiso   1.00
H269   H     0.60598   0.22555   0.16378   0.00000  Uiso   1.00
H270   H     0.48756   0.95366   0.20581   0.00000  Uiso   1.00
H271   H     0.39900   0.95365   0.15301   0.00000  Uiso   1.00
H272   H     0.47404   1.05494   0.20585   0.00000  Uiso   1.00
H273   H     0.47688   0.93707   0.37399   0.00000  Uiso   1.00
H274   H     0.50413   0.89015   0.46067   0.00000  Uiso   1.00
H275   H     0.58206   1.01679   0.42040   0.00000  Uiso   1.00
H276   H     0.47160   0.33713   0.48323   0.00000  Uiso   1.00
H277   H     0.52370   0.27722   0.52334   0.00000  Uiso   1.00
H278   H     0.50613   0.34856   0.58123   0.00000  Uiso   1.00
H279   H     0.22789   0.17896   0.59296   0.00000  Uiso   1.00
H280   H     0.29524   0.28496   0.53846   0.00000  Uiso   1.00
H281   H     0.31660   0.29039   0.63962   0.00000  Uiso   1.00
H282   H     0.57825   0.31159   0.39928   0.00000  Uiso   1.00
H283   H     0.45811   0.27295   0.38499   0.00000  Uiso   1.00
H284   H     0.53105   0.30240   0.31113   0.00000  Uiso   1.00
H285   H     0.60842   0.20846   0.28346   0.00000  Uiso   1.00
H286   H     0.56669   0.07909   0.30134   0.00000  Uiso   1.00
H287   H     0.63436   0.18221   0.36767   0.00000  Uiso   1.00
H288   H     0.65388   0.47268   0.43011   0.00000  Uiso   1.00
H289   H     0.58292   0.48563   0.35957   0.00000  Uiso   1.00
H290   H     0.67224   0.59062   0.41446   0.00000  Uiso   1.00
H291   H     0.79979   0.50425   0.41217   0.00000  Uiso   1.00
H292   H     0.85508   0.63213   0.40574   0.00000  Uiso   1.00
H293   H     0.88486   0.56436   0.34708   0.00000  Uiso   1.00
H294   H     0.21614   0.26889   0.84637   0.00000  Uiso   1.00
H295   H     0.13475   0.29775   0.85828   0.00000  Uiso   1.00
H296   H     0.13776   0.21835   0.91895   0.00000  Uiso   1.00
H297   H     0.14351   0.42312   0.95303   0.00000  Uiso   1.00
H298   H     0.23939   0.52960   0.93346   0.00000  Uiso   1.00
H299   H     0.23122   0.48786   1.02297   0.00000  Uiso   1.00
H300   H     0.47866   0.57428   0.59344   0.00000  Uiso   1.00
H301   H     0.37516   0.45314   0.61016   0.00000  Uiso   1.00
H302   H     0.47854   0.46221   0.57789   0.00000  Uiso   1.00
H303   H     0.47706   0.44932   0.22146   0.00000  Uiso   1.00
H304   H     0.45392   0.52983   0.27179   0.00000  Uiso   1.00
H305   H     0.56859   0.57005   0.24849   0.00000  Uiso   1.00
H306   H     0.63911   0.73021   0.12606   0.00000  Uiso   1.00
H307   H     0.58394   0.72394   0.20955   0.00000  Uiso   1.00
H308   H     0.54562   0.76131   0.13511   0.00000  Uiso   1.00
H309   H     0.34008   0.55269   0.20314   0.00000  Uiso   1.00
H310   H     0.32689   0.55158   0.10190   0.00000  Uiso   1.00
H311   H     0.38034   0.65819   0.14974   0.00000  Uiso   1.00
H312   H     0.47419   0.68753  -0.04878   0.00000  Uiso   1.00
H313   H     0.36691   0.63244  -0.00406   0.00000  Uiso   1.00
H314   H     0.46916   0.71992   0.03881   0.00000  Uiso   1.00
H315   H     0.31485   0.76811   0.05580   0.00000  Uiso   1.00
H316   H     0.37358   0.89395   0.02932   0.00000  Uiso   1.00
H317   H     0.43155   0.84063   0.08360   0.00000  Uiso   1.00
H318   H     0.56835   0.93292   0.08702   0.00000  Uiso   1.00
H319   H     0.67160   1.04916   0.11112   0.00000  Uiso   1.00
H320   H     0.62993   1.02593   0.01761   0.00000  Uiso   1.00
H321   H     0.52130   0.88937   0.85824   0.00000  Uiso   1.00
H322   H     0.57816   0.89469   0.93726   0.00000  Uiso   1.00
H323   H     0.53454   0.97333   0.93153   0.00000  Uiso   1.00
H324   H     0.52758   0.57394   0.48652   0.00000  Uiso   1.00
H325   H     0.50170   0.56236   0.39318   0.00000  Uiso   1.00
H326   H     0.41730   0.55913   0.45313   0.00000  Uiso   1.00
H327   H     0.71535   0.68127   0.26787   0.00000  Uiso   1.00
H328   H     0.82642   0.71486   0.24391   0.00000  Uiso   1.00
H329   H     0.80349   0.74320   0.33023   0.00000  Uiso   1.00
H330   H     0.65341   0.72194   0.35160   0.00000  Uiso   1.00
H331   H     0.70295   0.77450   0.43912   0.00000  Uiso   1.00
H332   H     0.67660   0.84152   0.36671   0.00000  Uiso   1.00
H333   H     0.42971   0.75599   0.39939   0.00000  Uiso   1.00
H334   H     0.41306   0.67317   0.33461   0.00000  Uiso   1.00
H335   H     0.50844   0.80065   0.32863   0.00000  Uiso   1.00
H336   H     0.38273   0.42482   0.85750   0.00000  Uiso   1.00
H337   H     0.39996   0.53666   0.88285   0.00000  Uiso   1.00
H338   H     0.30602   0.45794   0.82293   0.00000  Uiso   1.00
H339   H     0.37530   0.64981   0.85277   0.00000  Uiso   1.00
H340   H     0.31144   0.59782   0.77111   0.00000  Uiso   1.00
H341   H     0.36905   0.73304   0.79319   0.00000  Uiso   1.00
H342   H     0.63038   0.74436   0.78650   0.00000  Uiso   1.00
H343   H     0.56648   0.74186   0.86525   0.00000  Uiso   1.00
H344   H     0.60291   0.84558   0.79868   0.00000  Uiso   1.00
H345   H     0.81779   0.17712   0.17537   0.00000  Uiso   1.00
H346   H     0.91475   0.16338   0.16722   0.00000  Uiso   1.00
H347   H     0.87722   0.17611   0.25061   0.00000  Uiso   1.00
H348   H     0.80863  -0.11874   0.24713   0.00000  Uiso   1.00
H349   H     0.84776  -0.01390   0.31151   0.00000  Uiso   1.00
H350   H     0.91659  -0.00239   0.23815   0.00000  Uiso   1.00
H351   H     0.62356   0.90701   0.22571   0.00000  Uiso   1.00
H352   H     0.66357   1.03433   0.22992   0.00000  Uiso   1.00
H353   H     0.69162   0.98251   0.30423   0.00000  Uiso   1.00
H354   H     0.72788   0.19177   0.50270   0.00000  Uiso   1.00
H355   H     0.74677   0.28655   0.55907   0.00000  Uiso   1.00
H356   H     0.65471   0.24066   0.48534   0.00000  Uiso   1.00
H357   H     0.76728   0.20271   0.89624   0.00000  Uiso   1.00
H358   H     0.69135   0.08284   0.90921   0.00000  Uiso   1.00
H359   H     0.71331   0.17487   0.97645   0.00000  Uiso   1.00
H360   H     0.76466   0.07325   0.80961   0.00000  Uiso   1.00
H361   H     0.72434  -0.01804   0.74401   0.00000  Uiso   1.00
H362   H     0.65064   0.01024   0.79000   0.00000  Uiso   1.00
H363   H     0.68524   0.56475   0.06688   0.00000  Uiso   1.00
H364   H     0.76346   0.63467   0.13666   0.00000  Uiso   1.00
H365   H     0.65113   0.60054   0.14732   0.00000  Uiso   1.00
H366   H     0.96976   0.55617   0.92277   0.00000  Uiso   1.00
H367   H     1.06364   0.53555   0.92875   0.00000  Uiso   1.00
H368   H     0.95106   0.43867   0.95914   0.00000  Uiso   1.00
H369   H     0.81890   0.52416   0.83048   0.00000  Uiso   1.00
H370   H     0.77688   0.60251   0.83421   0.00000  Uiso   1.00
H371   H     0.70076   0.47329   0.81024   0.00000  Uiso   1.00
H372   H     0.77766   0.36026  -0.08012   0.00000  Uiso   1.00
H373   H     0.70733   0.33577  -0.00470   0.00000  Uiso   1.00
H374   H     0.82249   0.42677   0.00373   0.00000  Uiso   1.00
H375   H     0.82081   0.58396   0.05591   0.00000  Uiso   1.00
H376   H     0.81386   0.66411  -0.01103   0.00000  Uiso   1.00
H377   H     0.89450   0.63013  -0.02582   0.00000  Uiso   1.00
H378   H     0.64150   0.56315   0.55446   0.00000  Uiso   1.00
H379   H     0.74114   0.68345   0.56376   0.00000  Uiso   1.00
H380   H     0.63412   0.66724   0.58908   0.00000  Uiso   1.00
H381   H     0.80302   0.76484   0.68959   0.00000  Uiso   1.00
H382   H     0.83051   0.69031   0.75018   0.00000  Uiso   1.00
H383   H     0.76236   0.73780   0.78120   0.00000  Uiso   1.00
H384   H     0.92389   0.42762   0.08111   0.00000  Uiso   1.00
H385   H     0.82225   0.30484   0.08285   0.00000  Uiso   1.00
H386   H     0.92440   0.35445   0.14881   0.00000  Uiso   1.00
H387   H     0.86748   0.38473   0.29773   0.00000  Uiso   1.00
H388   H     0.78319   0.28615   0.24138   0.00000  Uiso   1.00
H389   H     0.75846   0.36075   0.28917   0.00000  Uiso   1.00
H390   H     0.95588   0.59439   0.13115   0.00000  Uiso   1.00
H391   H     0.99463   0.55504   0.20981   0.00000  Uiso   1.00
H392   H     0.91804   0.60314   0.22104   0.00000  Uiso   1.00
H393   H     0.58978   0.61489   0.94537   0.00000  Uiso   1.00
H394   H     0.55012   0.58368   0.85444   0.00000  Uiso   1.00
H395   H     0.67082   0.63160   0.87363   0.00000  Uiso   1.00
H396   H     0.68651   0.38952   0.54457   0.00000  Uiso   1.00
H397   H     0.80884   0.44534   0.54247   0.00000  Uiso   1.00
H398   H     0.75122   0.51836   0.53527   0.00000  Uiso   1.00
H399   H     0.90038   0.62574   0.63656   0.00000  Uiso   1.00
H400   H     0.93068   0.53904   0.66116   0.00000  Uiso   1.00
H401   H     0.89197   0.59205   0.72340   0.00000  Uiso   1.00
H402   H     0.93657   0.88759   0.85057   0.00000  Uiso   1.00
H403   H     0.93773   0.88499   0.94686   0.00000  Uiso   1.00
H404   H     0.87410   0.77229   0.89299   0.00000  Uiso   1.00
H405   H     0.78090   0.77938   1.13856   0.00000  Uiso   1.00
H406   H     0.89229   0.88843   1.12962   0.00000  Uiso   1.00
H407   H     0.83399   0.80773   1.05502   0.00000  Uiso   1.00
H408   H     0.69811   0.87401  -0.05718   0.00000  Uiso   1.00
H409   H     0.62738   0.81104   0.01802   0.00000  Uiso   1.00
H410   H     0.70139   0.77825  -0.01730   0.00000  Uiso   1.00
H411   H     0.93069   1.06618   1.03625   0.00000  Uiso   1.00
H412   H     0.85834   1.09024   0.98136   0.00000  Uiso   1.00
H413   H     0.88646   1.00345   0.95241   0.00000  Uiso   1.00
H414   H     0.73928   0.83516   0.58118   0.00000  Uiso   1.00
H415   H     0.65340   0.79536   0.65163   0.00000  Uiso   1.00
H416   H     0.74430   0.92238   0.63759   0.00000  Uiso   1.00
H417   H     0.75906   0.97213   0.48441   0.00000  Uiso   1.00
H418   H     0.70994   1.04453   0.51489   0.00000  Uiso   1.00
H419   H     0.66493   0.95375   0.43493   0.00000  Uiso   1.00
loop_
_geom_bond_atom_site_label_1
_geom_bond_atom_site_label_2
_geom_bond_distance
_geom_bond_site_symmetry_2
_ccdc_geom_bond_type
Si1    O52     1.601   .     S
Si1    O92     1.615   .     S
Si1    O71     1.604   1_545 S
Si1    O75     1.619   1_545 S
Si2    O52     1.591   .     S
Si2    O63     1.611   .     S
Si2    C53     1.784   1_554 S
Si2    O105    1.563   1_554 S
Si3    O59     1.616   .     S
Si3    O96     1.600   .     S
Si3    C54     1.858   1_545 S
Si3    O79     1.612   1_545 S
Si4    C55     1.833   .     S
Si4    C56     1.858   .     S
Si4    C57     1.873   1_455 S
Si4    O155    1.590   1_455 S
Si5    C58     1.884   .     S
Si5    O59     1.604   .     S
Si5    C60     1.909   .     S
Si5    O93     1.639   .     S
Si6    C61     1.871   .     S
Si6    O103    1.533   .     S
Si6    O85     1.553   1_545 S
Si6    O89     1.584   1_545 S
Si7    C62     1.861   .     S
Si7    O63     1.645   .     S
Si7    C64     1.816   .     S
Si7    C65     1.851   .     S
Si8    C66     1.914   .     S
Si8    O82     1.655   .     S
Si8    C161    1.918   1_455 S
Si8    O174    1.602   1_455 S
Si9    C67     1.858   .     S
Si9    C68     1.855   .     S
Si9    C69     1.879   .     S
Si9    O83     1.636   .     S
Si10   C70     1.830   .     S
Si10   O71     1.597   .     S
Si10   C72     1.922   1_455 S
Si10   C73     1.882   1_455 S
Si11   C74     1.906   .     S
Si11   O75     1.628   .     S
Si11   O84     1.625   1_554 S
Si11   O142    1.621   1_554 S
Si12   C76     1.862   .     S
Si12   C77     1.862   .     S
Si12   C78     1.947   .     S
Si12   O132    1.633   .     S
Si13   O79     1.610   .     S
Si13   O87     1.611   .     S
Si13   C80     1.865   1_455 S
Si13   C81     1.880   1_455 S
Si14   O82     1.677   .     S
Si14   O83     1.596   .     S
Si14   O88     1.615   .     S
Si14   O139    1.611   .     S
Si15   O84     1.606   .     S
Si15   O85     1.574   .     S
Si15   C86     1.803   1_455 S
Si15   C183    1.907   1_455 S
Si16   O87     1.611   .     S
Si16   O88     1.651   .     S
Si16   O89     1.636   .     S
Si16   O134    1.560   .     S
Si17   C90     1.889   .     S
Si17   O94     1.637   .     S
Si17   C91     1.877   1_545 S
Si17   C126    1.797   1_545 S
Si18   O92     1.635   .     S
Si18   O93     1.651   .     S
Si18   O99     1.642   .     S
Si18   O108    1.617   .     S
Si19   O94     1.602   .     S
Si19   O109    1.630   .     S
Si19   O104    1.596   1_554 S
Si19   O154    1.626   1_554 S
Si20   O100    1.592   .     S
Si20   O149    1.580   .     S
Si20   C95     1.852   1_545 S
Si20   O133    1.577   1_545 S
Si21   O96     1.536   .     S
Si21   C97     1.899   .     S
Si21   C98     1.871   .     S
Si21   O106    1.540   .     S
Si22   O99     1.565   .     S
Si22   O100    1.593   .     S
Si22   C101    1.809   .     S
Si22   C102    1.847   .     S
Si23   O107    1.607   .     S
Si23   O152    1.636   .     S
Si23   O141    1.678   1_545 S
Si23   O145    1.652   1_545 S
Si24   O103    1.653   .     S
Si24   O104    1.623   .     S
Si24   O105    1.569   .     S
Si24   O113    1.609   .     S
Si25   O106    1.600   .     S
Si25   O107    1.616   .     S
Si25   O114    1.631   .     S
Si25   O151    1.611   .     S
Si26   O108    1.646   .     S
Si26   O109    1.609   .     S
Si26   O110    1.648   .     S
Si26   O158    1.634   .     S
Si27   O110    1.612   .     S
Si27   O121    1.634   .     S
Si27   O116    1.610   1_554 S
Si27   O178    1.606   1_554 S
Si28   C111    1.850   .     S
Si28   C112    1.870   .     S
Si28   C129    1.892   .     S
Si28   O160    1.571   .     S
Si29   O113    1.647   .     S
Si29   O114    1.603   .     S
Si29   O119    1.633   .     S
Si29   O175    1.595   .     S
Si30   C115    1.858   .     S
Si30   O116    1.624   .     S
Si30   C117    1.893   .     S
Si30   C135    1.784   .     S
Si31   C118    1.888   .     S
Si31   O119    1.720   .     S
Si31   O137    1.599   .     S
Si31   O167    1.571   .     S
Si32   C120    1.844   .     S
Si32   O121    1.617   .     S
Si32   C122    1.861   .     S
Si32   C123    1.925   .     S
Si33   C124    1.875   .     S
Si33   C125    1.841   .     S
Si33   C127    1.835   1_554 S
Si33   O140    1.607   1_554 S
Si34   C128    1.847   .     S
Si34   C130    1.840   .     S
Si34   C131    1.903   .     S
Si34   O188    1.576   .     S
Si35   O132    1.610   .     S
Si35   O133    1.597   .     S
Si35   O134    1.560   .     S
Si35   O143    1.657   .     S
Si36   C136    1.862   .     S
Si36   O137    1.612   .     S
Si36   C138    1.874   .     S
Si36   O144    1.616   .     S
Si37   O139    1.637   .     S
Si37   O140    1.555   .     S
Si37   O141    1.666   .     S
Si37   O142    1.585   .     S
Si38   O143    1.557   .     S
Si38   O144    1.621   .     S
Si38   O145    1.676   .     S
Si38   O191    1.615   .     S
Si39   C146    1.860   .     S
Si39   C147    1.842   .     S
Si39   C148    1.832   1_545 S
Si39   O186    1.612   1_545 S
Si40   O149    1.537   .     S
Si40   C150    1.861   .     S
Si40   O151    1.607   .     S
Si40   O156    1.577   .     S
Si41   O152    1.680   .     S
Si41   C153    1.839   .     S
Si41   O154    1.656   .     S
Si41   O172    1.642   .     S
Si42   O155    1.629   .     S
Si42   O156    1.578   .     S
Si42   C157    1.881   .     S
Si42   O173    1.609   .     S
Si43   O158    1.591   .     S
Si43   C159    1.895   .     S
Si43   O160    1.584   .     S
Si43   O169    1.614   .     S
Si44   C163    1.845   .     S
Si44   C164    1.842   .     S
Si44   C162    1.868   1_554 S
Si44   O176    1.584   1_554 S
Si45   C165    1.891   .     S
Si45   C166    1.869   .     S
Si45   O167    1.561   .     S
Si45   O180    1.609   .     S
Si46   C168    1.884   .     S
Si46   O169    1.619   .     S
Si46   C170    1.876   .     S
Si46   C171    1.864   .     S
Si47   O172    1.635   .     S
Si47   O173    1.546   .     S
Si47   O174    1.672   .     S
Si47   O181    1.591   .     S
Si48   O175    1.564   .     S
Si48   O176    1.582   .     S
Si48   C177    1.907   .     S
Si48   O178    1.587   .     S
Si49   C179    1.859   .     S
Si49   O180    1.632   .     S
Si49   O181    1.580   .     S
Si49   C182    1.834   .     S
Si50   C185    1.882   .     S
Si50   O186    1.595   .     S
Si50   C184    1.842   1_554 S
Si50   C187    1.921   1_554 S
Si51   O188    1.589   .     S
Si51   C189    1.829   .     S
Si51   C190    1.839   .     S
Si51   O191    1.604   .     S
C53    H192    1.084   .     S
C53    H193    1.098   .     S
C53    H194    1.110   .     S
C53    Si2     1.784   1_556 S
C54    H195    1.119   .     S
C54    H196    1.067   .     S
C54    H197    1.118   .     S
C54    Si3     1.858   1_565 S
C55    H198    1.075   .     S
C55    H199    1.129   .     S
C55    H200    1.108   .     S
C56    H201    1.125   .     S
C56    H202    1.163   .     S
C56    H203    1.125   .     S
C57    H204    1.111   .     S
C57    H205    1.129   .     S
C57    H206    1.098   .     S
C57    Si4     1.873   1_655 S
C58    H207    1.093   .     S
C58    H208    1.111   .     S
C58    H209    1.085   .     S
C60    H210    1.161   .     S
C60    H211    1.119   .     S
C60    H212    1.116   .     S
C61    H213    1.121   .     S
C61    H214    1.124   .     S
C61    H215    1.135   .     S
C62    H216    1.128   .     S
C62    H217    1.082   .     S
C62    H218    1.065   .     S
C64    H219    1.091   .     S
C64    H220    1.080   .     S
C64    H221    1.122   .     S
C65    H222    1.094   .     S
C65    H223    1.135   .     S
C65    H224    1.100   .     S
C66    H225    1.087   .     S
C66    H226    1.163   .     S
C66    H227    1.045   .     S
C67    H228    1.119   .     S
C67    H229    1.137   .     S
C67    H230    1.078   .     S
C68    H231    1.050   .     S
C68    H232    1.139   .     S
C68    H233    1.117   .     S
C69    H234    1.177   .     S
C69    H235    1.101   .     S
C69    H236    1.086   .     S
C70    H237    1.149   .     S
C70    H238    1.135   .     S
C70    H239    1.070   .     S
O71    Si1     1.604   1_565 S
C72    H240    1.106   .     S
C72    H241    1.087   .     S
C72    H242    1.110   .     S
C72    Si10    1.922   1_655 S
C73    H243    1.104   .     S
C73    H244    1.125   .     S
C73    H245    1.116   .     S
C73    Si10    1.882   1_655 S
C74    H246    1.089   .     S
C74    H247    1.111   .     S
C74    H248    1.128   .     S
O75    Si1     1.619   1_565 S
C76    H249    1.118   .     S
C76    H250    1.164   .     S
C76    H251    1.122   .     S
C77    H252    1.079   .     S
C77    H253    1.115   .     S
C77    H254    1.149   .     S
C78    H255    1.060   .     S
C78    H256    1.156   .     S
C78    H257    1.083   .     S
O79    Si3     1.612   1_565 S
C80    H258    1.094   .     S
C80    H259    1.118   .     S
C80    H260    1.067   .     S
C80    Si13    1.865   1_655 S
C81    H261    1.138   .     S
C81    H262    1.111   .     S
C81    H263    1.104   .     S
C81    Si13    1.880   1_655 S
O84    Si11    1.625   1_556 S
O85    Si6     1.553   1_565 S
C86    H264    1.104   .     S
C86    H265    1.091   .     S
C86    H266    1.091   .     S
C86    Si15    1.803   1_655 S
O89    Si6     1.584   1_565 S
C90    H267    1.024   .     S
C90    H268    1.078   .     S
C90    H269    1.113   .     S
C91    H270    1.109   .     S
C91    H271    1.091   .     S
C91    H272    1.036   .     S
C91    Si17    1.877   1_565 S
C95    H273    1.133   .     S
C95    H274    1.172   .     S
C95    H275    1.122   .     S
C95    Si20    1.852   1_565 S
C97    H276    1.075   .     S
C97    H277    1.094   .     S
C97    H278    1.107   .     S
C98    H279    1.097   .     S
C98    H280    1.145   .     S
C98    H281    1.108   .     S
C101   H282    1.087   .     S
C101   H283    1.099   .     S
C101   H284    1.090   .     S
C102   H285    1.163   .     S
C102   H286    1.062   .     S
C102   H287    1.093   .     S
O104   Si19    1.596   1_556 S
O105   Si2     1.563   1_556 S
C111   H288    1.118   .     S
C111   H289    1.119   .     S
C111   H290    1.086   .     S
C112   H291    1.064   .     S
C112   H292    1.078   .     S
C112   H293    1.113   .     S
C115   H294    1.117   .     S
C115   H295    1.067   .     S
C115   H296    1.072   .     S
O116   Si27    1.610   1_556 S
C117   H297    1.083   .     S
C117   H298    1.114   .     S
C117   H299    1.083   .     S
C118   H300    1.084   .     S
C118   H301    1.123   .     S
C118   H302    1.115   .     S
C120   H303    1.120   .     S
C120   H304    1.108   .     S
C120   H305    1.124   .     S
C122   H306    1.180   .     S
C122   H307    1.087   .     S
C122   H308    1.091   .     S
C123   H309    1.110   .     S
C123   H310    1.116   .     S
C123   H311    1.102   .     S
C124   H312    1.097   .     S
C124   H313    1.075   .     S
C124   H314    1.076   .     S
C125   H315    1.113   .     S
C125   H316    1.097   .     S
C125   H317    1.123   .     S
C126   H318    1.098   .     S
C126   H319    1.136   .     S
C126   H320    1.110   .     S
C126   Si17    1.797   1_565 S
C127   H321    1.087   .     S
C127   H322    1.097   .     S
C127   H323    1.096   .     S
C127   Si33    1.835   1_556 S
C128   H324    1.115   .     S
C128   H325    1.100   .     S
C128   H326    1.131   .     S
C129   H327    1.085   .     S
C129   H328    1.108   .     S
C129   H329    1.066   .     S
C130   H330    1.079   .     S
C130   H331    1.159   .     S
C130   H332    1.103   .     S
C131   H333    1.073   .     S
C131   H334    1.110   .     S
C131   H335    1.091   .     S
O133   Si20    1.577   1_565 S
C135   H336    1.094   .     S
C135   H337    1.100   .     S
C135   H338    1.069   .     S
C136   H339    1.125   .     S
C136   H340    1.122   .     S
C136   H341    1.086   .     S
C138   H342    1.118   .     S
C138   H343    1.145   .     S
C138   H344    1.145   .     S
O140   Si33    1.607   1_556 S
O141   Si23    1.678   1_565 S
O142   Si11    1.621   1_556 S
O145   Si23    1.652   1_565 S
C146   H345    1.100   .     S
C146   H346    1.069   .     S
C146   H347    1.091   .     S
C147   H348    1.166   .     S
C147   H349    1.066   .     S
C147   H350    1.104   .     S
C148   H351    1.121   .     S
C148   H352    1.055   .     S
C148   H353    1.075   .     S
C148   Si39    1.832   1_565 S
C150   H354    1.108   .     S
C150   H355    1.100   .     S
C150   H356    1.145   .     S
C153   H357    1.061   .     S
C153   H358    1.086   .     S
C153   H359    1.150   .     S
O154   Si19    1.626   1_556 S
O155   Si4     1.590   1_655 S
C157   H360    1.053   .     S
C157   H361    1.075   .     S
C157   H362    1.112   .     S
C159   H363    1.103   .     S
C159   H364    1.092   .     S
C159   H365    1.100   .     S
C161   H366    1.159   .     S
C161   H367    1.056   .     S
C161   H368    1.140   .     S
C161   Si8     1.918   1_655 S
C162   H369    1.081   .     S
C162   H370    1.071   .     S
C162   H371    1.151   .     S
C162   Si44    1.868   1_556 S
C163   H372    1.134   .     S
C163   H373    1.062   .     S
C163   H374    1.095   .     S
C164   H375    1.130   .     S
C164   H376    1.102   .     S
C164   H377    1.129   .     S
C165   H378    1.114   .     S
C165   H379    1.113   .     S
C165   H380    1.143   .     S
C166   H381    1.086   .     S
C166   H382    1.141   .     S
C166   H383    1.126   .     S
C168   H384    1.045   .     S
C168   H385    1.127   .     S
C168   H386    1.125   .     S
C170   H387    1.130   .     S
C170   H388    1.085   .     S
C170   H389    1.053   .     S
C171   H390    1.099   .     S
C171   H391    1.121   .     S
C171   H392    1.140   .     S
O174   Si8     1.602   1_655 S
O176   Si44    1.584   1_556 S
C177   H393    1.083   .     S
C177   H394    1.160   .     S
C177   H395    1.113   .     S
O178   Si27    1.606   1_556 S
C179   H396    1.055   .     S
C179   H397    1.135   .     S
C179   H398    1.120   .     S
C182   H399    1.065   .     S
C182   H400    1.088   .     S
C182   H401    1.071   .     S
C183   H402    1.114   .     S
C183   H403    1.094   .     S
C183   H404    1.089   .     S
C183   Si15    1.907   1_655 S
C184   H405    1.153   .     S
C184   H406    1.085   .     S
C184   H407    1.076   .     S
C184   Si50    1.842   1_556 S
C185   H408    1.101   .     S
C185   H409    1.125   .     S
C185   H410    1.084   .     S
O186   Si39    1.612   1_565 S
C187   H411    1.069   .     S
C187   H412    1.143   .     S
C187   H413    1.097   .     S
C187   Si50    1.921   1_556 S
C189   H414    1.130   .     S
C189   H415    1.131   .     S
C189   H416    1.068   .     S
C190   H417    1.086   .     S
C190   H418    1.144   .     S
C190   H419    1.102   .     S
