data_333-15-11-10-15-30-12
_audit_creation_date              2025-03-07
_audit_creation_method            'Materials Studio'
_symmetry_space_group_name_H-M    'P1'
_symmetry_Int_Tables_number       1
_symmetry_cell_setting            triclinic
loop_
_symmetry_equiv_pos_as_xyz
  x,y,z
_cell_length_a                    17.2172
_cell_length_b                    16.3718
_cell_length_c                    19.1260
_cell_angle_alpha                 81.4137
_cell_angle_beta                  91.7218
_cell_angle_gamma                 125.8268
loop_
_atom_site_label
_atom_site_type_symbol
_atom_site_fract_x
_atom_site_fract_y
_atom_site_fract_z
_atom_site_U_iso_or_equiv
_atom_site_adp_type
_atom_site_occupancy
Si1    Si    0.19555   0.02034   0.11807   0.00000  Uiso   1.00
Si2    Si   -0.09482   0.20302   0.20112   0.00000  Uiso   1.00
Si3    Si    0.23937   0.17489  -0.01009   0.00000  Uiso   1.00
Si4    Si   -0.06299   0.06941   0.55290   0.00000  Uiso   1.00
Si5    Si    0.21255   0.19848   0.28038   0.00000  Uiso   1.00
Si6    Si    0.12989  -0.01825   0.81663   0.00000  Uiso   1.00
Si7    Si    0.11216   0.24824   0.93195   0.00000  Uiso   1.00
Si8    Si   -0.00694   0.54064   0.23538   0.00000  Uiso   1.00
Si9    Si    0.42721   0.62072  -0.06988   0.00000  Uiso   1.00
Si10   Si   -0.07880   0.40201   0.54132   0.00000  Uiso   1.00
Si11   Si    0.11530   0.48696   0.32867   0.00000  Uiso   1.00
Si12   Si    0.17756   0.71309   0.13494   0.00000  Uiso   1.00
Si13   Si    0.03253   0.82917   0.21303   0.00000  Uiso   1.00
Si14   Si    0.18762   0.87980   0.02379   0.00000  Uiso   1.00
Si15   Si    0.16543   0.81613   0.31664   0.00000  Uiso   1.00
Si16   Si    0.01639   0.87206   0.95773   0.00000  Uiso   1.00
Si17   Si    0.11758   0.83915   0.72656   0.00000  Uiso   1.00
Si18   Si    0.50303   0.03882   0.15803   0.00000  Uiso   1.00
Si19   Si    0.35370   0.16684   0.21745   0.00000  Uiso   1.00
Si20   Si    0.47343  -0.04218   0.41680   0.00000  Uiso   1.00
Si21   Si    0.36704   0.16291   0.55690   0.00000  Uiso   1.00
Si22   Si    0.46086   0.13396   0.33095   0.00000  Uiso   1.00
Si23   Si    0.47846   0.01160   0.78248   0.00000  Uiso   1.00
Si24   Si    0.31092   0.15587   0.85779   0.00000  Uiso   1.00
Si25   Si    0.50944   0.12930   0.63033   0.00000  Uiso   1.00
Si26   Si    0.54880   0.36664   0.13617   0.00000  Uiso   1.00
Si27   Si    0.47408   0.28736   0.41390   0.00000  Uiso   1.00
Si28   Si    0.49599   0.47179   0.30748   0.00000  Uiso   1.00
Si29   Si    0.49474   0.57781   0.80354   0.00000  Uiso   1.00
Si30   Si    0.33307   0.83346   0.24148   0.00000  Uiso   1.00
Si31   Si    0.44621   0.59049   0.39668   0.00000  Uiso   1.00
Si32   Si    0.31977   0.80031   0.53733   0.00000  Uiso   1.00
Si33   Si    0.46199   0.79891   0.32999   0.00000  Uiso   1.00
Si34   Si    0.32264   0.90361   0.90658   0.00000  Uiso   1.00
Si35   Si    0.63334   0.21293   0.24327   0.00000  Uiso   1.00
Si36   Si    0.62945   0.11943   0.51401   0.00000  Uiso   1.00
Si37   Si    0.77330   0.18210   0.31311   0.00000  Uiso   1.00
Si38   Si    0.66591   0.14706   0.85635   0.00000  Uiso   1.00
Si39   Si    0.75776   0.06088   0.59050   0.00000  Uiso   1.00
Si40   Si    0.81720   0.39782   0.15666   0.00000  Uiso   1.00
Si41   Si    0.67865   0.51400   0.23635   0.00000  Uiso   1.00
Si42   Si    0.85247   0.56616   0.04902   0.00000  Uiso   1.00
Si43   Si    0.78836   0.31131   0.41948   0.00000  Uiso   1.00
Si44   Si    0.83345   0.51457   0.33006   0.00000  Uiso   1.00
Si45   Si    0.85405   0.35422   0.81834   0.00000  Uiso   1.00
Si46   Si    0.85207   0.70870   0.13035   0.00000  Uiso   1.00
Si47   Si    0.60852   0.81485   0.22732   0.00000  Uiso   1.00
Si48   Si    0.91189   0.91395   0.05516   0.00000  Uiso   1.00
Si49   Si    0.82677   0.62596   0.44059   0.00000  Uiso   1.00
Si50   Si    0.57704   0.68845   0.51774   0.00000  Uiso   1.00
Si51   Si    0.83349   0.75628   0.87727   0.00000  Uiso   1.00
C52    C     0.02121   0.32917   0.17848   0.00000  Uiso   1.00
C53    C     0.85804   0.15780   0.11065   0.00000  Uiso   1.00
O54    O     0.18965   0.09708   0.06218   0.00000  Uiso   1.00
C55    C     0.34082   0.29689   0.00495   0.00000  Uiso   1.00
C56    C     0.04291   0.16856   0.59189   0.00000  Uiso   1.00
C57    C    -0.03247   0.07809   0.45799   0.00000  Uiso   1.00
C58    C     0.89266  -0.05454   0.60630   0.00000  Uiso   1.00
C59    C    -0.06238   0.12293   0.24794   0.00000  Uiso   1.00
C60    C     0.18499   0.24263   0.19257   0.00000  Uiso   1.00
C61    C     0.10560   0.06842   0.31726   0.00000  Uiso   1.00
C62    C     0.23224   0.26330   0.36007   0.00000  Uiso   1.00
C63    C     0.10167   0.05294   0.74609   0.00000  Uiso   1.00
O64    O     0.15794   0.18645   0.95163   0.00000  Uiso   1.00
C65    C     0.17452   0.34992   0.85334   0.00000  Uiso   1.00
C66    C     1.11836   0.30734   1.01053   0.00000  Uiso   1.00
C67    C     0.99127   0.16646   0.89565   0.00000  Uiso   1.00
C68    C     0.37577   0.54587   0.01752   0.00000  Uiso   1.00
C69    C     0.33984   0.64059   0.88709   0.00000  Uiso   1.00
C70    C     0.00437   0.36473   0.57373   0.00000  Uiso   1.00
C71    C    -0.01810   0.53898   0.52499   0.00000  Uiso   1.00
C72    C     0.81436   0.34923   0.60512   0.00000  Uiso   1.00
O73    O     0.03624   0.49825   0.29073   0.00000  Uiso   1.00
C74    C     0.06216   0.36150   0.38336   0.00000  Uiso   1.00
C75    C     0.18477   0.57345   0.39438   0.00000  Uiso   1.00
C76    C     0.20987   0.51291   0.26642   0.00000  Uiso   1.00
O77    O     0.07937   0.64817   0.18604   0.00000  Uiso   1.00
C78    C     0.53063   0.74090  -0.04881   0.00000  Uiso   1.00
C79    C     0.18229   0.62131   0.09237   0.00000  Uiso   1.00
O80    O     0.09263   0.93152   0.16009   0.00000  Uiso   1.00
C81    C     0.96094   0.82757   0.28413   0.00000  Uiso   1.00
O82    O     0.17266   0.77857   0.06954   0.00000  Uiso   1.00
O83    O     0.22203   0.96233   0.07578   0.00000  Uiso   1.00
O84    O     0.10134   0.80228   0.25045   0.00000  Uiso   1.00
C85    C     0.10033   0.71267   0.38483   0.00000  Uiso   1.00
C86    C     0.19668   0.92675   0.35964   0.00000  Uiso   1.00
O87    O     0.08257   0.84389   0.99546   0.00000  Uiso   1.00
O88    O     0.07655   0.95509   0.89095   0.00000  Uiso   1.00
C89    C     0.04253   0.84467   0.65192   0.00000  Uiso   1.00
C90    C     0.06513   0.69936   0.74757   0.00000  Uiso   1.00
O91    O     0.10666   0.88259   0.79271   0.00000  Uiso   1.00
C92    C     0.42953   0.04051   0.08639   0.00000  Uiso   1.00
C93    C     0.57067   0.99787   0.12592   0.00000  Uiso   1.00
O94    O     0.27775   0.08444   0.17158   0.00000  Uiso   1.00
O95    O     0.29506   0.18841   0.26637   0.00000  Uiso   1.00
C96    C     0.24840   0.06524   0.52700   0.00000  Uiso   1.00
C97    C     0.35768   0.22137   0.63398   0.00000  Uiso   1.00
O98    O     0.39521   0.11798   0.26769   0.00000  Uiso   1.00
O99    O     0.44992   0.02958   0.36306   0.00000  Uiso   1.00
C100   C     0.48868   0.90635   0.78213   0.00000  Uiso   1.00
O101   O     0.24342   0.05234   0.82804   0.00000  Uiso   1.00
C102   C     0.43960   0.20088   0.85670   0.00000  Uiso   1.00
C103   C     0.31559   0.26395   0.80781   0.00000  Uiso   1.00
O104   O     0.27533   0.13854   0.93731   0.00000  Uiso   1.00
O105   O     0.42560   0.11698   0.58457   0.00000  Uiso   1.00
O106   O     0.46167   0.04766   0.70398   0.00000  Uiso   1.00
C107   C     0.58783   0.25166   0.66070   0.00000  Uiso   1.00
O108   O     0.43925   0.27517   0.16819   0.00000  Uiso   1.00
C109   C     0.57872   0.31072   0.07104   0.00000  Uiso   1.00
C110   C     0.54760   0.47050   0.08013   0.00000  Uiso   1.00
O111   O     0.42448   0.25416   0.49141   0.00000  Uiso   1.00
O112   O     0.43251   0.17954   0.38604   0.00000  Uiso   1.00
C113   C     0.60279   0.35245   0.42170   0.00000  Uiso   1.00
C114   C     0.43089   0.44490   0.22798   0.00000  Uiso   1.00
O115   O     0.45821   0.36458   0.36451   0.00000  Uiso   1.00
C116   C     0.40225   0.52677   0.73989   0.00000  Uiso   1.00
C117   C     0.56018   0.51304   0.80732   0.00000  Uiso   1.00
C118   C     0.58088   0.70972   0.76665   0.00000  Uiso   1.00
O119   O     0.45291   0.56861   0.88155   0.00000  Uiso   1.00
O120   O     0.27781   0.78239   0.17313   0.00000  Uiso   1.00
O121   O     0.42379   0.95283   0.21848   0.00000  Uiso   1.00
O122   O     0.26358   0.83417   0.29473   0.00000  Uiso   1.00
C123   C     0.33196   0.48016   0.44378   0.00000  Uiso   1.00
O124   O     0.47918   0.54961   0.33872   0.00000  Uiso   1.00
C125   C     0.29107   0.66838   0.54156   0.00000  Uiso   1.00
C126   C     0.39240   0.85167   0.60910   0.00000  Uiso   1.00
O127   O     0.37456   0.87682   0.46536   0.00000  Uiso   1.00
C128   C     0.21222   0.79742   0.55966   0.00000  Uiso   1.00
C129   C     0.24742   0.90314   0.70287   0.00000  Uiso   1.00
O130   O     0.37344   0.77613   0.28632   0.00000  Uiso   1.00
O131   O     0.44356   0.69200   0.37049   0.00000  Uiso   1.00
O132   O     0.48981   0.88404   0.37991   0.00000  Uiso   1.00
C133   C     0.22531   0.78008   0.87699   0.00000  Uiso   1.00
C134   C     0.40093   0.87938   0.96903   0.00000  Uiso   1.00
O135   O     0.39299   0.98433   0.84071   0.00000  Uiso   1.00
O136   O     0.26765   0.93103   0.95298   0.00000  Uiso   1.00
O137   O     0.57011   0.14573   0.18410   0.00000  Uiso   1.00
O138   O     0.56215   0.20974   0.29115   0.00000  Uiso   1.00
O139   O     0.56109   0.02545   0.46830   0.00000  Uiso   1.00
O140   O     0.57256   0.10995   0.58396   0.00000  Uiso   1.00
O141   O     0.84669   0.22822   0.24610   0.00000  Uiso   1.00
O142   O     0.67370   0.15880   0.28990   0.00000  Uiso   1.00
C143   C     0.74449   0.05560   0.35790   0.00000  Uiso   1.00
O144   O     0.57954   0.10265   0.80460   0.00000  Uiso   1.00
C145   C     0.68322   0.04769   0.89098   0.00000  Uiso   1.00
C146   C     0.63884   0.18037   0.93511   0.00000  Uiso   1.00
O147   O     0.84925   0.08020   0.54982   0.00000  Uiso   1.00
O148   O     0.71370   0.11392   0.54680   0.00000  Uiso   1.00
C149   C     0.66157  -0.07490   0.60782   0.00000  Uiso   1.00
O150   O     0.72521   0.32283   0.21466   0.00000  Uiso   1.00
C151   C     0.80273   0.31866   0.09465   0.00000  Uiso   1.00
O152   O     0.92278   0.45309   0.18805   0.00000  Uiso   1.00
O153   O     0.61966   0.41655   0.19666   0.00000  Uiso   1.00
O154   O     0.60193   0.52137   0.27951   0.00000  Uiso   1.00
C155   C     0.97956   0.60865   1.02723   0.00000  Uiso   1.00
O156   O     0.80965   0.48498   0.11815   0.00000  Uiso   1.00
C157   C     0.78818   0.51696   0.96672   0.00000  Uiso   1.00
O158   O     0.68647   0.22704   0.46013   0.00000  Uiso   1.00
O159   O     0.81306   0.26032   0.36809   0.00000  Uiso   1.00
O160   O     0.87708   0.35865   0.47009   0.00000  Uiso   1.00
O161   O     0.92646   0.55752   0.28408   0.00000  Uiso   1.00
O162   O     0.74355   0.49713   0.28533   0.00000  Uiso   1.00
O163   O     0.79051   0.40456   0.37300   0.00000  Uiso   1.00
O164   O     0.76304   0.24230   0.81518   0.00000  Uiso   1.00
C165   C     0.79781   0.10651   0.67307   0.00000  Uiso   1.00
C166   C     0.95743   0.38472   0.75711   0.00000  Uiso   1.00
C167   C     0.82229   0.44606   0.78684   0.00000  Uiso   1.00
C168   C     0.90054   0.36716   0.90897   0.00000  Uiso   1.00
O169   O     0.75146   0.62199   0.18166   0.00000  Uiso   1.00
O170   O     0.85471   0.65946   0.06545   0.00000  Uiso   1.00
O171   O     0.94613   0.74128   0.17208   0.00000  Uiso   1.00
C172   C     0.51891   0.71189   0.17712   0.00000  Uiso   1.00
C173   C     0.67429   0.77750   0.28911   0.00000  Uiso   1.00
C174   C     0.70337   0.91208   0.16102   0.00000  Uiso   1.00
O175   O     0.54919   0.84510   0.27053   0.00000  Uiso   1.00
O176   O     0.99237   0.92726   1.00654   0.00000  Uiso   1.00
O177   O     0.85681   0.80879   0.10732   0.00000  Uiso   1.00
C178   C     0.97055   1.01704   0.11432   0.00000  Uiso   1.00
C179   C     0.82195   0.91773   1.00454   0.00000  Uiso   1.00
C180   C     0.76455   0.52614   0.51738   0.00000  Uiso   1.00
O181   O     0.86309   0.59407   0.38336   0.00000  Uiso   1.00
C182   C     0.74164   0.64635   0.39753   0.00000  Uiso   1.00
C183   C     0.91777   0.74692   0.48027   0.00000  Uiso   1.00
O184   O     0.52313   0.62115   0.45710   0.00000  Uiso   1.00
C185   C     0.62504   0.62935   0.57766   0.00000  Uiso   1.00
C186   C     0.67058   0.82123   0.47077   0.00000  Uiso   1.00
C187   C     0.48877   0.68736   0.57190   0.00000  Uiso   1.00
C188   C     0.71415   0.68308   0.92757   0.00000  Uiso   1.00
C189   C     0.83304   0.68891   0.80905   0.00000  Uiso   1.00
C190   C     0.86058   0.87654   0.82891   0.00000  Uiso   1.00
O191   O     0.91777   0.78047   0.93250   0.00000  Uiso   1.00
H192   H     0.01435   0.39209   0.15852   0.00000  Uiso   1.00
H193   H     0.06665   0.33164   0.13524   0.00000  Uiso   1.00
H194   H     0.06103   0.35062   0.22570   0.00000  Uiso   1.00
H195   H     0.87809   0.11127   0.09167   0.00000  Uiso   1.00
H196   H     0.88829   0.22823   0.06913   0.00000  Uiso   1.00
H197   H     0.78092   0.11130   0.11602   0.00000  Uiso   1.00
H198   H     0.32362   0.29841   0.05915   0.00000  Uiso   1.00
H199   H     0.34375   0.35797  -0.03000   0.00000  Uiso   1.00
H200   H     0.40786   0.30908   0.00105   0.00000  Uiso   1.00
H201   H     0.07631   0.24069   0.55568   0.00000  Uiso   1.00
H202   H     0.09356   0.15216   0.59977   0.00000  Uiso   1.00
H203   H     0.02180   0.17291   0.64477   0.00000  Uiso   1.00
H204   H     0.01168   0.05370   0.45261   0.00000  Uiso   1.00
H205   H     0.00630   0.16150   0.43137   0.00000  Uiso   1.00
H206   H    -0.09723   0.02304   0.43615   0.00000  Uiso   1.00
H207   H     0.84675  -0.11597   0.57364   0.00000  Uiso   1.00
H208   H     0.84969  -0.07142   0.65296   0.00000  Uiso   1.00
H209   H     0.95516  -0.05523   0.62015   0.00000  Uiso   1.00
H210   H    -0.00623   0.12947   0.22167   0.00000  Uiso   1.00
H211   H    -0.12691   0.04404   0.26890   0.00000  Uiso   1.00
H212   H    -0.03139   0.15347   0.29637   0.00000  Uiso   1.00
H213   H     0.17015   0.30154   0.19812   0.00000  Uiso   1.00
H214   H     0.12447   0.17427   0.17039   0.00000  Uiso   1.00
H215   H     0.24938   0.28280   0.15644   0.00000  Uiso   1.00
H216   H     0.11239   0.03590   0.36903   0.00000  Uiso   1.00
H217   H     0.08278   0.02152   0.28129   0.00000  Uiso   1.00
H218   H     0.04665   0.07688   0.32574   0.00000  Uiso   1.00
H219   H     0.29194   0.34899   0.34998   0.00000  Uiso   1.00
H220   H     0.25888   0.23110   0.40333   0.00000  Uiso   1.00
H221   H     0.16569   0.24694   0.37803   0.00000  Uiso   1.00
H222   H     0.11011   0.11121   0.77646   0.00000  Uiso   1.00
H223   H     0.02983  -0.00539   0.73510   0.00000  Uiso   1.00
H224   H     0.15369   0.09296   0.70300   0.00000  Uiso   1.00
H225   H     0.15509   0.40164   0.84543   0.00000  Uiso   1.00
H226   H     0.15150   0.31050   0.80587   0.00000  Uiso   1.00
H227   H     0.25224   0.39615   0.86709   0.00000  Uiso   1.00
H228   H     1.06631   0.24400   1.05352   0.00000  Uiso   1.00
H229   H     1.10385   0.36117   0.99545   0.00000  Uiso   1.00
H230   H     1.18738   0.34166   1.03222   0.00000  Uiso   1.00
H231   H     0.93517   0.13555   0.93776   0.00000  Uiso   1.00
H232   H     0.99086   0.11325   0.86722   0.00000  Uiso   1.00
H233   H     0.98081   0.21534   0.85704   0.00000  Uiso   1.00
H234   H     0.43463   0.57348   0.05372   0.00000  Uiso   1.00
H235   H     0.34164   0.46977   0.01178   0.00000  Uiso   1.00
H236   H     0.32387   0.56141   0.03734   0.00000  Uiso   1.00
H237   H     0.27360   0.60239   0.92059   0.00000  Uiso   1.00
H238   H     0.32678   0.61749   0.83343   0.00000  Uiso   1.00
H239   H     0.36633   0.72163   0.88011   0.00000  Uiso   1.00
H240   H     0.04999   0.41684   0.61117   0.00000  Uiso   1.00
H241   H     0.04776   0.37144   0.52856   0.00000  Uiso   1.00
H242   H    -0.02833   0.28458   0.60429   0.00000  Uiso   1.00
H243   H    -0.02282   0.57745   0.56679   0.00000  Uiso   1.00
H244   H    -0.04713   0.55363   0.47480   0.00000  Uiso   1.00
H245   H     0.05856   0.57540   0.51320   0.00000  Uiso   1.00
H246   H     0.77995   0.26815   0.62484   0.00000  Uiso   1.00
H247   H     0.76061   0.35445   0.57656   0.00000  Uiso   1.00
H248   H     0.83402   0.38703   0.64990   0.00000  Uiso   1.00
H249   H     0.11431   0.37447   0.42375   0.00000  Uiso   1.00
H250   H     0.06989   0.31313   0.35406   0.00000  Uiso   1.00
H251   H    -0.00876   0.33279   0.40482   0.00000  Uiso   1.00
H252   H     0.22518   0.65452   0.37556   0.00000  Uiso   1.00
H253   H     0.23463   0.55937   0.41912   0.00000  Uiso   1.00
H254   H     0.13754   0.55688   0.43880   0.00000  Uiso   1.00
H255   H     0.22581   0.45783   0.27975   0.00000  Uiso   1.00
H256   H     0.27340   0.58666   0.28288   0.00000  Uiso   1.00
H257   H     0.20956   0.52766   0.21007   0.00000  Uiso   1.00
H258   H     0.51144   0.78081  -0.01967   0.00000  Uiso   1.00
H259   H     0.57671   0.79494  -0.09757   0.00000  Uiso   1.00
H260   H     0.57374   0.71635  -0.02077   0.00000  Uiso   1.00
H261   H     0.14241   0.60792   0.04117   0.00000  Uiso   1.00
H262   H     0.14503   0.54125   0.12125   0.00000  Uiso   1.00
H263   H     0.25815   0.64950   0.08290   0.00000  Uiso   1.00
H264   H     0.91067   0.74610   0.30199   0.00000  Uiso   1.00
H265   H     0.91123   0.85355   0.26872   0.00000  Uiso   1.00
H266   H     1.00645   0.85351   0.32930   0.00000  Uiso   1.00
H267   H     0.15282   0.71271   0.42304   0.00000  Uiso   1.00
H268   H     0.06544   0.64238   0.35914   0.00000  Uiso   1.00
H269   H     0.04914   0.71199   0.42051   0.00000  Uiso   1.00
H270   H     0.22796   0.99726   0.31842   0.00000  Uiso   1.00
H271   H     0.24913   0.93983   0.39384   0.00000  Uiso   1.00
H272   H     0.13260   0.90649   0.39198   0.00000  Uiso   1.00
H273   H     0.04931   0.80974   0.60896   0.00000  Uiso   1.00
H274   H     0.07148   0.92165   0.63104   0.00000  Uiso   1.00
H275   H    -0.02929   0.80557   0.67346   0.00000  Uiso   1.00
H276   H     0.03969   0.66505   0.69934   0.00000  Uiso   1.00
H277   H     0.00646   0.66332   0.78539   0.00000  Uiso   1.00
H278   H     0.11564   0.68045   0.76624   0.00000  Uiso   1.00
H279   H     0.38422  -0.03482   0.07107   0.00000  Uiso   1.00
H280   H     0.47604   0.09081   0.03686   0.00000  Uiso   1.00
H281   H     0.39232   0.07652   0.10093   0.00000  Uiso   1.00
H282   H     0.59757   1.03720   0.07174   0.00000  Uiso   1.00
H283   H     0.52368   0.91601   0.11960   0.00000  Uiso   1.00
H284   H     0.63247   1.01887   0.16062   0.00000  Uiso   1.00
H285   H     0.21434   0.00730   0.57671   0.00000  Uiso   1.00
H286   H     0.25863   0.02980   0.48259   0.00000  Uiso   1.00
H287   H     0.19901   0.08631   0.51278   0.00000  Uiso   1.00
H288   H     0.42739   0.29865   0.63765   0.00000  Uiso   1.00
H289   H     0.31827   0.16479   0.68006   0.00000  Uiso   1.00
H290   H     0.30312   0.23299   0.61577   0.00000  Uiso   1.00
H291   H     0.42253   0.84698   0.76358   0.00000  Uiso   1.00
H292   H     0.50979   0.88295   0.83339   0.00000  Uiso   1.00
H293   H     0.53969   0.93633   0.73793   0.00000  Uiso   1.00
H294   H     0.45001   0.17898   0.80728   0.00000  Uiso   1.00
H295   H     0.45096   0.16692   0.90589   0.00000  Uiso   1.00
H296   H     0.49044   0.28818   0.84651   0.00000  Uiso   1.00
H297   H     0.34214   0.31793   0.84233   0.00000  Uiso   1.00
H298   H     0.24351   0.24230   0.79986   0.00000  Uiso   1.00
H299   H     0.36574   0.29367   0.76003   0.00000  Uiso   1.00
H300   H     0.60826   0.31837   0.61882   0.00000  Uiso   1.00
H301   H     0.64961   0.25958   0.68594   0.00000  Uiso   1.00
H302   H     0.55163   0.25359   0.70727   0.00000  Uiso   1.00
H303   H     0.64943   0.33467   0.08676   0.00000  Uiso   1.00
H304   H     0.58957   0.35130   0.01536   0.00000  Uiso   1.00
H305   H     0.51435   0.22693   0.07707   0.00000  Uiso   1.00
H306   H     0.59399   0.54090   0.10623   0.00000  Uiso   1.00
H307   H     0.47328   0.45329   0.07604   0.00000  Uiso   1.00
H308   H     0.57310   0.48448   0.02543   0.00000  Uiso   1.00
H309   H     0.63095   0.43081   0.42197   0.00000  Uiso   1.00
H310   H     0.63376   0.34532   0.37272   0.00000  Uiso   1.00
H311   H     0.60757   0.31409   0.47308   0.00000  Uiso   1.00
H312   H     0.41834   0.37872   0.21622   0.00000  Uiso   1.00
H313   H     0.47613   0.50398   0.18180   0.00000  Uiso   1.00
H314   H     0.36435   0.43921   0.23121   0.00000  Uiso   1.00
H315   H     0.33438   0.45638   0.76141   0.00000  Uiso   1.00
H316   H     0.42870   0.51620   0.69105   0.00000  Uiso   1.00
H317   H     0.38756   0.58228   0.72016   0.00000  Uiso   1.00
H318   H     0.63581   0.56837   0.79090   0.00000  Uiso   1.00
H319   H     0.52143   0.44996   0.77575   0.00000  Uiso   1.00
H320   H     0.54307   0.47083   0.86444   0.00000  Uiso   1.00
H321   H     0.63451   0.75124   0.80785   0.00000  Uiso   1.00
H322   H     0.52971   0.73581   0.75792   0.00000  Uiso   1.00
H323   H     0.62168   0.72509   0.71506   0.00000  Uiso   1.00
H324   H     0.33335   0.41405   0.45589   0.00000  Uiso   1.00
H325   H     0.27629   0.46253   0.40572   0.00000  Uiso   1.00
H326   H     0.31741   0.49747   0.49782   0.00000  Uiso   1.00
H327   H     0.21594   0.61727   0.52710   0.00000  Uiso   1.00
H328   H     0.30238   0.64103   0.59507   0.00000  Uiso   1.00
H329   H     0.34739   0.68492   0.49855   0.00000  Uiso   1.00
H330   H     0.37542   0.90070   0.63137   0.00000  Uiso   1.00
H331   H     0.46901   0.90081   0.58838   0.00000  Uiso   1.00
H332   H     0.38006   0.79106   0.65288   0.00000  Uiso   1.00
H333   H     0.16450   0.76067   0.52069   0.00000  Uiso   1.00
H334   H     0.23881   0.88115   0.55517   0.00000  Uiso   1.00
H335   H     0.17872   0.76095   0.61196   0.00000  Uiso   1.00
H336   H     0.27478   0.96035   0.65546   0.00000  Uiso   1.00
H337   H     0.26419   0.85056   0.70464   0.00000  Uiso   1.00
H338   H     0.28487   0.94452   0.74790   0.00000  Uiso   1.00
H339   H     0.16063   0.77656   0.87209   0.00000  Uiso   1.00
H340   H     0.21879   0.71901   0.91356   0.00000  Uiso   1.00
H341   H     0.25038   0.77365   0.82266   0.00000  Uiso   1.00
H342   H     0.43928   0.86349   0.93395   0.00000  Uiso   1.00
H343   H     0.35660   0.80743   1.00351   0.00000  Uiso   1.00
H344   H     0.45367   0.94607   0.99124   0.00000  Uiso   1.00
H345   H     0.68696   0.02590   0.40621   0.00000  Uiso   1.00
H346   H     0.80598   0.06710   0.38481   0.00000  Uiso   1.00
H347   H     0.71413  -0.00332   0.32144   0.00000  Uiso   1.00
H348   H     0.69461   0.01712   0.84690   0.00000  Uiso   1.00
H349   H     0.62505  -0.00313   0.93054   0.00000  Uiso   1.00
H350   H     0.74853   0.08497   0.91917   0.00000  Uiso   1.00
H351   H     0.70229   0.20439   0.96258   0.00000  Uiso   1.00
H352   H     0.57211   0.11005   0.96388   0.00000  Uiso   1.00
H353   H     0.62876   0.24100   0.92342   0.00000  Uiso   1.00
H354   H     0.69461  -0.11768   0.61900   0.00000  Uiso   1.00
H355   H     0.62168  -0.09469   0.55754   0.00000  Uiso   1.00
H356   H     0.60602  -0.10220   0.64860   0.00000  Uiso   1.00
H357   H     0.77189   0.23897   0.11688   0.00000  Uiso   1.00
H358   H     0.87157   0.34659   0.07369   0.00000  Uiso   1.00
H359   H     0.75976   0.32029   0.04932   0.00000  Uiso   1.00
H360   H     0.97560   0.54125   1.01504   0.00000  Uiso   1.00
H361   H     1.01688   0.64061   1.07077   0.00000  Uiso   1.00
H362   H     1.01013   0.66534   0.97816   0.00000  Uiso   1.00
H363   H     0.77336   0.44295   0.96251   0.00000  Uiso   1.00
H364   H     0.83289   0.57499   0.92316   0.00000  Uiso   1.00
H365   H     0.71532   0.49942   0.96511   0.00000  Uiso   1.00
H366   H     0.83965   0.07724   0.68842   0.00000  Uiso   1.00
H367   H     0.72934   0.05537   0.70939   0.00000  Uiso   1.00
H368   H     0.84101   0.19360   0.66544   0.00000  Uiso   1.00
H369   H     1.01225   0.38718   0.79095   0.00000  Uiso   1.00
H370   H     0.99294   0.46191   0.72760   0.00000  Uiso   1.00
H371   H     0.92769   0.32448   0.72418   0.00000  Uiso   1.00
H372   H     0.85737   0.50883   0.82313   0.00000  Uiso   1.00
H373   H     0.74487   0.41034   0.79324   0.00000  Uiso   1.00
H374   H     0.85338   0.48097   0.73260   0.00000  Uiso   1.00
H375   H     0.97869   0.43156   0.90069   0.00000  Uiso   1.00
H376   H     0.88906   0.29409   0.93160   0.00000  Uiso   1.00
H377   H     0.86430   0.38314   0.94330   0.00000  Uiso   1.00
H378   H     0.45602   0.65364   0.21752   0.00000  Uiso   1.00
H379   H     0.55365   0.67985   0.15643   0.00000  Uiso   1.00
H380   H     0.48546   0.73756   0.13631   0.00000  Uiso   1.00
H381   H     0.73998   0.84212   0.30919   0.00000  Uiso   1.00
H382   H     0.69081   0.73965   0.26086   0.00000  Uiso   1.00
H383   H     0.62615   0.71695   0.33419   0.00000  Uiso   1.00
H384   H     0.68163   0.93238   0.11048   0.00000  Uiso   1.00
H385   H     0.74413   0.88224   0.14054   0.00000  Uiso   1.00
H386   H     0.74945   0.97575   0.18992   0.00000  Uiso   1.00
H387   H     0.91401   1.01558   0.14468   0.00000  Uiso   1.00
H388   H     1.02091   1.09425   0.08165   0.00000  Uiso   1.00
H389   H     1.00860   1.00219   0.15254   0.00000  Uiso   1.00
H390   H     0.82054   0.97721   1.02272   0.00000  Uiso   1.00
H391   H     0.75288   0.84421   1.01106   0.00000  Uiso   1.00
H392   H     0.84747   0.94261   0.94960   0.00000  Uiso   1.00
H393   H     0.74898   0.45671   0.50411   0.00000  Uiso   1.00
H394   H     0.69282   0.50749   0.53434   0.00000  Uiso   1.00
H395   H     0.81054   0.54412   0.56492   0.00000  Uiso   1.00
H396   H     0.76564   0.72211   0.40848   0.00000  Uiso   1.00
H397   H     0.67106   0.59546   0.41452   0.00000  Uiso   1.00
H398   H     0.74261   0.64519   0.34364   0.00000  Uiso   1.00
H399   H     0.87981   0.75083   0.52773   0.00000  Uiso   1.00
H400   H     0.94554   0.81807   0.44127   0.00000  Uiso   1.00
H401   H     0.97294   0.73319   0.49939   0.00000  Uiso   1.00
H402   H     0.69817   0.67067   0.55213   0.00000  Uiso   1.00
H403   H     0.57414   0.54720   0.57567   0.00000  Uiso   1.00
H404   H     0.63303   0.65444   0.62791   0.00000  Uiso   1.00
H405   H     0.72356   0.86950   0.50272   0.00000  Uiso   1.00
H406   H     0.62933   0.85228   0.44712   0.00000  Uiso   1.00
H407   H     0.71030   0.81518   0.42886   0.00000  Uiso   1.00
H408   H     0.41014   0.61011   0.57788   0.00000  Uiso   1.00
H409   H     0.47962   0.74390   0.53632   0.00000  Uiso   1.00
H410   H     0.51488   0.71300   0.62211   0.00000  Uiso   1.00
H411   H     0.72533   0.68239   0.98380   0.00000  Uiso   1.00
H412   H     0.67005   0.59875   0.92861   0.00000  Uiso   1.00
H413   H     0.67811   0.71455   0.90579   0.00000  Uiso   1.00
H414   H     0.77688   0.60066   0.82333   0.00000  Uiso   1.00
H415   H     0.90271   0.70258   0.79913   0.00000  Uiso   1.00
H416   H     0.80665   0.70748   0.76083   0.00000  Uiso   1.00
H417   H     0.80890   0.88365   0.85279   0.00000  Uiso   1.00
H418   H     0.83415   0.85922   0.77514   0.00000  Uiso   1.00
H419   H     0.93176   0.94717   0.82990   0.00000  Uiso   1.00
loop_
_geom_bond_atom_site_label_1
_geom_bond_atom_site_label_2
_geom_bond_distance
_geom_bond_site_symmetry_2
_ccdc_geom_bond_type
Si1    O54     1.573   .     S
Si1    O94     1.627   .     S
Si1    O80     1.619   1_545 S
Si1    O83     1.588   1_545 S
Si2    C52     1.844   .     S
Si2    C59     1.819   .     S
Si2    C53     1.948   1_455 S
Si2    O141    1.603   1_455 S
Si3    O54     1.592   .     S
Si3    C55     1.783   .     S
Si3    O64     1.657   1_554 S
Si3    O104    1.548   1_554 S
Si4    C56     1.825   .     S
Si4    C57     1.867   .     S
Si4    C58     1.833   1_455 S
Si4    O147    1.619   1_455 S
Si5    C60     1.887   .     S
Si5    C61     1.861   .     S
Si5    C62     1.896   .     S
Si5    O95     1.558   .     S
Si6    C63     1.889   .     S
Si6    O101    1.615   .     S
Si6    O88     1.574   1_545 S
Si6    O91     1.567   1_545 S
Si7    O64     1.609   .     S
Si7    C65     1.855   .     S
Si7    C66     1.874   1_455 S
Si7    C67     1.880   1_455 S
Si8    O73     1.579   .     S
Si8    O77     1.650   .     S
Si8    O152    1.621   1_455 S
Si8    O161    1.665   1_455 S
Si9    C68     1.813   .     S
Si9    C78     1.816   .     S
Si9    C69     1.861   1_554 S
Si9    O119    1.578   1_554 S
Si10   C70     1.914   .     S
Si10   C71     1.813   .     S
Si10   C72     1.892   1_455 S
Si10   O160    1.591   1_455 S
Si11   O73     1.615   .     S
Si11   C74     1.835   .     S
Si11   C75     1.864   .     S
Si11   C76     1.845   .     S
Si12   O77     1.621   .     S
Si12   C79     1.855   .     S
Si12   O82     1.556   .     S
Si12   O120    1.637   .     S
Si13   O80     1.559   .     S
Si13   O84     1.605   .     S
Si13   C81     1.850   1_455 S
Si13   O171    1.630   1_455 S
Si14   O82     1.631   .     S
Si14   O83     1.610   .     S
Si14   O87     1.644   1_554 S
Si14   O136    1.690   1_554 S
Si15   O84     1.606   .     S
Si15   C85     1.741   .     S
Si15   C86     1.877   .     S
Si15   O122    1.594   .     S
Si16   O87     1.581   .     S
Si16   O88     1.570   .     S
Si16   O176    1.604   1_455 S
Si16   O191    1.597   1_455 S
Si17   C89     1.924   .     S
Si17   C90     1.882   .     S
Si17   O91     1.607   .     S
Si17   C129    1.865   .     S
Si18   C92     1.845   .     S
Si18   O137    1.583   .     S
Si18   C93     1.806   1_545 S
Si18   O121    1.594   1_545 S
Si19   O94     1.587   .     S
Si19   O95     1.610   .     S
Si19   O98     1.572   .     S
Si19   O108    1.652   .     S
Si20   O99     1.665   .     S
Si20   O139    1.660   .     S
Si20   O127    1.614   1_545 S
Si20   O132    1.644   1_545 S
Si21   C96     1.854   .     S
Si21   C97     1.932   .     S
Si21   O105    1.612   .     S
Si21   O111    1.602   .     S
Si22   O98     1.573   .     S
Si22   O99     1.628   .     S
Si22   O112    1.612   .     S
Si22   O138    1.557   .     S
Si23   O106    1.611   .     S
Si23   O144    1.593   .     S
Si23   C100    1.833   1_545 S
Si23   O135    1.669   1_545 S
Si24   O101    1.578   .     S
Si24   C102    1.881   .     S
Si24   C103    1.840   .     S
Si24   O104    1.579   .     S
Si25   O105    1.589   .     S
Si25   O106    1.633   .     S
Si25   C107    1.818   .     S
Si25   O140    1.617   .     S
Si26   O108    1.632   .     S
Si26   C109    1.894   .     S
Si26   C110    1.880   .     S
Si26   O153    1.589   .     S
Si27   O111    1.586   .     S
Si27   O112    1.640   .     S
Si27   C113    1.825   .     S
Si27   O115    1.612   .     S
Si28   C114    1.812   .     S
Si28   O115    1.682   .     S
Si28   O124    1.653   .     S
Si28   O154    1.571   .     S
Si29   C116    1.829   .     S
Si29   C117    1.942   .     S
Si29   C118    1.794   .     S
Si29   O119    1.624   .     S
Si30   O120    1.623   .     S
Si30   O121    1.632   .     S
Si30   O122    1.601   .     S
Si30   O130    1.608   .     S
Si31   C123    1.845   .     S
Si31   O124    1.644   .     S
Si31   O131    1.689   .     S
Si31   O184    1.626   .     S
Si32   C125    1.902   .     S
Si32   C126    1.779   .     S
Si32   O127    1.592   .     S
Si32   C128    1.885   .     S
Si33   O130    1.585   .     S
Si33   O131    1.651   .     S
Si33   O132    1.634   .     S
Si33   O175    1.624   .     S
Si34   C133    1.880   .     S
Si34   C134    1.947   .     S
Si34   O135    1.588   .     S
Si34   O136    1.598   .     S
Si35   O137    1.604   .     S
Si35   O138    1.524   .     S
Si35   O142    1.585   .     S
Si35   O150    1.570   .     S
Si36   O139    1.654   .     S
Si36   O140    1.616   .     S
Si36   O148    1.608   .     S
Si36   O158    1.620   .     S
Si37   O141    1.581   .     S
Si37   O142    1.588   .     S
Si37   C143    1.887   .     S
Si37   O159    1.596   .     S
Si38   O144    1.606   .     S
Si38   C145    1.846   .     S
Si38   C146    1.835   .     S
Si38   O164    1.584   .     S
Si39   O147    1.613   .     S
Si39   O148    1.595   .     S
Si39   C149    1.816   .     S
Si39   C165    1.792   .     S
Si40   O150    1.634   .     S
Si40   C151    1.792   .     S
Si40   O152    1.629   .     S
Si40   O156    1.579   .     S
Si41   O153    1.604   .     S
Si41   O154    1.650   .     S
Si41   O162    1.557   .     S
Si41   O169    1.650   .     S
Si42   O156    1.564   .     S
Si42   O170    1.583   .     S
Si42   C155    1.906   1_554 S
Si42   C157    1.893   1_554 S
Si43   O158    1.585   .     S
Si43   O159    1.590   .     S
Si43   O160    1.619   .     S
Si43   O163    1.629   .     S
Si44   O161    1.554   .     S
Si44   O162    1.639   .     S
Si44   O163    1.581   .     S
Si44   O181    1.607   .     S
Si45   O164    1.576   .     S
Si45   C166    1.923   .     S
Si45   C167    1.896   .     S
Si45   C168    1.876   .     S
Si46   O169    1.669   .     S
Si46   O170    1.593   .     S
Si46   O171    1.607   .     S
Si46   O177    1.586   .     S
Si47   C172    1.869   .     S
Si47   C173    1.889   .     S
Si47   C174    1.813   .     S
Si47   O175    1.654   .     S
Si48   O177    1.578   .     S
Si48   C178    1.912   .     S
Si48   O176    1.580   1_554 S
Si48   C179    1.828   1_554 S
Si49   C180    1.818   .     S
Si49   O181    1.567   .     S
Si49   C182    1.832   .     S
Si49   C183    1.923   .     S
Si50   O184    1.594   .     S
Si50   C185    1.866   .     S
Si50   C186    1.879   .     S
Si50   C187    1.855   .     S
Si51   C188    1.864   .     S
Si51   C189    1.827   .     S
Si51   C190    1.832   .     S
Si51   O191    1.655   .     S
C52    H192    1.115   .     S
C52    H193    1.136   .     S
C52    H194    1.088   .     S
C53    H195    1.109   .     S
C53    H196    1.131   .     S
C53    H197    1.075   .     S
C53    Si2     1.948   1_655 S
C55    H198    1.094   .     S
C55    H199    1.092   .     S
C55    H200    1.053   .     S
C56    H201    1.091   .     S
C56    H202    1.053   .     S
C56    H203    1.111   .     S
C57    H204    1.058   .     S
C57    H205    1.147   .     S
C57    H206    1.067   .     S
C58    H207    1.120   .     S
C58    H208    1.071   .     S
C58    H209    1.107   .     S
C58    Si4     1.833   1_655 S
C59    H210    1.044   .     S
C59    H211    1.121   .     S
C59    H212    1.090   .     S
C60    H213    1.152   .     S
C60    H214    1.126   .     S
C60    H215    1.093   .     S
C61    H216    1.089   .     S
C61    H217    1.003   .     S
C61    H218    1.121   .     S
C62    H219    1.142   .     S
C62    H220    1.141   .     S
C62    H221    1.067   .     S
C63    H222    1.126   .     S
C63    H223    1.071   .     S
C63    H224    1.052   .     S
O64    Si3     1.657   1_556 S
C65    H225    1.069   .     S
C65    H226    1.119   .     S
C65    H227    1.134   .     S
C66    H228    1.121   .     S
C66    H229    1.049   .     S
C66    H230    1.076   .     S
C66    Si7     1.874   1_655 S
C67    H231    1.091   .     S
C67    H232    1.090   .     S
C67    H233    1.097   .     S
C67    Si7     1.880   1_655 S
C68    H234    1.107   .     S
C68    H235    1.044   .     S
C68    H236    1.150   .     S
C69    H237    1.092   .     S
C69    H238    1.118   .     S
C69    H239    1.108   .     S
C69    Si9     1.861   1_556 S
C70    H240    1.105   .     S
C70    H241    1.110   .     S
C70    H242    1.143   .     S
C71    H243    1.121   .     S
C71    H244    1.128   .     S
C71    H245    1.098   .     S
C72    H246    1.095   .     S
C72    H247    1.100   .     S
C72    H248    1.061   .     S
C72    Si10    1.892   1_655 S
C74    H249    1.110   .     S
C74    H250    1.104   .     S
C74    H251    1.087   .     S
C75    H252    1.080   .     S
C75    H253    1.090   .     S
C75    H254    1.082   .     S
C76    H255    1.082   .     S
C76    H256    1.140   .     S
C76    H257    1.069   .     S
C78    H258    1.104   .     S
C78    H259    1.122   .     S
C78    H260    1.123   .     S
C79    H261    1.152   .     S
C79    H262    1.121   .     S
C79    H263    1.111   .     S
O80    Si1     1.619   1_565 S
C81    H264    1.084   .     S
C81    H265    1.172   .     S
C81    H266    1.105   .     S
C81    Si13    1.850   1_655 S
O83    Si1     1.588   1_565 S
C85    H267    1.145   .     S
C85    H268    1.126   .     S
C85    H269    1.125   .     S
C86    H270    1.127   .     S
C86    H271    1.034   .     S
C86    H272    1.123   .     S
O87    Si14    1.644   1_556 S
O88    Si6     1.574   1_565 S
C89    H273    1.114   .     S
C89    H274    1.059   .     S
C89    H275    1.065   .     S
C90    H276    1.096   .     S
C90    H277    1.054   .     S
C90    H278    1.115   .     S
O91    Si6     1.567   1_565 S
C92    H279    1.088   .     S
C92    H280    1.121   .     S
C92    H281    1.156   .     S
C93    H282    1.088   .     S
C93    H283    1.113   .     S
C93    H284    1.135   .     S
C93    Si18    1.806   1_565 S
C96    H285    1.123   .     S
C96    H286    1.168   .     S
C96    H287    1.103   .     S
C97    H288    1.136   .     S
C97    H289    1.073   .     S
C97    H290    1.100   .     S
C100   H291    1.073   .     S
C100   H292    1.127   .     S
C100   H293    1.069   .     S
C100   Si23    1.833   1_565 S
C102   H294    1.114   .     S
C102   H295    1.092   .     S
C102   H296    1.144   .     S
C103   H297    1.053   .     S
C103   H298    1.086   .     S
C103   H299    1.114   .     S
O104   Si3     1.548   1_556 S
C107   H300    1.124   .     S
C107   H301    1.099   .     S
C107   H302    1.117   .     S
C109   H303    1.087   .     S
C109   H304    1.125   .     S
C109   H305    1.142   .     S
C110   H306    1.134   .     S
C110   H307    1.141   .     S
C110   H308    1.085   .     S
C113   H309    1.075   .     S
C113   H310    1.145   .     S
C113   H311    1.113   .     S
C114   H312    1.033   .     S
C114   H313    1.107   .     S
C114   H314    1.097   .     S
C116   H315    1.083   .     S
C116   H316    1.129   .     S
C116   H317    1.092   .     S
C117   H318    1.083   .     S
C117   H319    1.110   .     S
C117   H320    1.146   .     S
C118   H321    1.148   .     S
C118   H322    1.182   .     S
C118   H323    1.136   .     S
O119   Si9     1.578   1_556 S
O121   Si18    1.594   1_565 S
C123   H324    1.087   .     S
C123   H325    1.109   .     S
C123   H326    1.182   .     S
C125   H327    1.109   .     S
C125   H328    1.113   .     S
C125   H329    1.168   .     S
C126   H330    1.138   .     S
C126   H331    1.113   .     S
C126   H332    1.117   .     S
O127   Si20    1.614   1_565 S
C128   H333    1.054   .     S
C128   H334    1.153   .     S
C128   H335    1.069   .     S
C129   H336    1.085   .     S
C129   H337    1.052   .     S
C129   H338    1.116   .     S
O132   Si20    1.644   1_565 S
C133   H339    1.083   .     S
C133   H340    1.080   .     S
C133   H341    1.179   .     S
C134   H342    1.111   .     S
C134   H343    1.073   .     S
C134   H344    1.073   .     S
O135   Si23    1.669   1_565 S
O136   Si14    1.690   1_556 S
O141   Si2     1.603   1_655 S
C143   H345    1.195   .     S
C143   H346    1.088   .     S
C143   H347    1.131   .     S
C145   H348    1.118   .     S
C145   H349    1.072   .     S
C145   H350    1.089   .     S
C146   H351    1.072   .     S
C146   H352    1.117   .     S
C146   H353    1.095   .     S
O147   Si4     1.619   1_655 S
C149   H354    1.129   .     S
C149   H355    1.138   .     S
C149   H356    1.079   .     S
C151   H357    1.096   .     S
C151   H358    1.055   .     S
C151   H359    1.130   .     S
O152   Si8     1.621   1_655 S
C155   H360    1.125   .     S
C155   H361    1.041   .     S
C155   H362    1.103   .     S
C155   Si42    1.906   1_556 S
C157   H363    1.098   .     S
C157   H364    1.066   .     S
C157   H365    1.112   .     S
C157   Si42    1.893   1_556 S
O160   Si10    1.591   1_655 S
O161   Si8     1.665   1_655 S
C165   H366    1.088   .     S
C165   H367    1.137   .     S
C165   H368    1.145   .     S
C166   H369    1.113   .     S
C166   H370    1.092   .     S
C166   H371    1.098   .     S
C167   H372    1.168   .     S
C167   H373    1.100   .     S
C167   H374    1.090   .     S
C168   H375    1.118   .     S
C168   H376    1.110   .     S
C168   H377    1.075   .     S
O171   Si13    1.630   1_655 S
C172   H378    1.140   .     S
C172   H379    1.111   .     S
C172   H380    1.129   .     S
C173   H381    1.114   .     S
C173   H382    1.036   .     S
C173   H383    1.113   .     S
C174   H384    1.101   .     S
C174   H385    1.166   .     S
C174   H386    1.095   .     S
O176   Si16    1.604   1_655 S
O176   Si48    1.580   1_556 S
C178   H387    1.135   .     S
C178   H388    1.120   .     S
C178   H389    1.062   .     S
C179   H390    1.095   .     S
C179   H391    1.080   .     S
C179   H392    1.074   .     S
C179   Si48    1.828   1_556 S
C180   H393    1.074   .     S
C180   H394    1.130   .     S
C180   H395    1.142   .     S
C182   H396    1.107   .     S
C182   H397    1.017   .     S
C182   H398    1.035   .     S
C183   H399    1.165   .     S
C183   H400    1.119   .     S
C183   H401    1.136   .     S
C185   H402    1.106   .     S
C185   H403    1.101   .     S
C185   H404    1.075   .     S
C186   H405    1.047   .     S
C186   H406    1.141   .     S
C186   H407    1.121   .     S
C187   H408    1.186   .     S
C187   H409    1.149   .     S
C187   H410    1.083   .     S
C188   H411    1.086   .     S
C188   H412    1.117   .     S
C188   H413    1.058   .     S
C189   H414    1.166   .     S
C189   H415    1.101   .     S
C189   H416    1.096   .     S
C190   H417    1.084   .     S
C190   H418    1.119   .     S
C190   H419    1.089   .     S
O191   Si16    1.597   1_655 S
